
     RDKit          2D

 51 53  0  0  0  0  0  0  0  0999 V2000
    5.6205   -1.2990    0.0000 C   0  0  0  0  0  0  0  0  0  0  0  0
    4.8705    0.0000    0.0000 C   0  0  0  0  0  0  0  0  0  0  0  0
    3.3705    0.0000    0.0000 C   0  0  0  0  0  0  0  0  0  0  0  0
    3.0367   -1.4624    0.0000 O   0  0  0  0  0  0  0  0  0  0  0  0
    2.1015   -2.6351    0.0000 C   0  0  0  0  0  0  0  0  0  0  0  0
    3.0367   -3.8079    0.0000 O   0  0  0  0  0  0  0  0  0  0  0  0
    0.7500   -3.2860    0.0000 C   0  0  0  0  0  0  0  0  0  0  0  0
    1.3600   -4.4903    0.0000 C   0  0  0  0  0  0  0  0  0  0  0  0
   -0.7500   -3.2860    0.0000 C   0  0  0  0  0  0  0  0  0  0  0  0
   -1.0838   -4.7484    0.0000 O   0  0  0  0  0  0  0  0  0  0  0  0
    0.0158   -5.7686    0.0000 C   0  0  0  0  0  0  0  0  0  0  0  0
   -0.3180   -7.2310    0.0000 C   0  0  0  0  0  0  0  0  0  0  0  0
    0.7816   -8.2513    0.0000 C   0  0  0  0  0  0  0  0  0  0  0  0
    1.4659   -9.5861    0.0000 C   0  0  0  0  0  0  0  0  0  0  0  0
   -0.4141   -9.1570    0.0000 O   0  0  0  0  0  0  0  0  0  0  0  0
   -0.2276  -10.6453    0.0000 C   0  0  0  0  0  0  0  0  0  0  0  0
    2.2150   -7.8091    0.0000 C   0  0  0  0  0  0  0  0  0  0  0  0
    3.3145   -8.8294    0.0000 O   0  0  0  0  0  0  0  0  0  0  0  0
    2.5487   -6.3467    0.0000 C   0  0  0  0  0  0  0  0  0  0  0  0
    3.9821   -5.9046    0.0000 C   0  0  0  0  0  0  0  0  0  0  0  0
    1.4492   -5.3265    0.0000 O   0  0  0  0  0  0  0  0  0  0  0  0
   -2.1015   -2.6351    0.0000 C   0  0  0  0  0  0  0  0  0  0  0  0
   -3.0367   -3.8079    0.0000 C   0  0  0  0  0  0  0  0  0  0  0  0
   -3.0367   -1.4624    0.0000 C   0  0  0  0  0  0  0  0  0  0  0  0
   -4.3881   -2.1132    0.0000 O   0  0  0  0  0  0  0  0  0  0  0  0
   -5.6275   -1.2682    0.0000 C   0  0  0  0  0  0  0  0  0  0  0  0
   -5.5154    0.2276    0.0000 O   0  0  0  0  0  0  0  0  0  0  0  0
   -6.7548    1.0725    0.0000 C   0  0  0  0  0  0  0  0  0  0  0  0
   -6.6427    2.5684    0.0000 C   0  0  0  0  0  0  0  0  0  0  0  0
   -8.1062    0.4217    0.0000 C   0  0  0  0  0  0  0  0  0  0  0  0
   -8.2183   -1.0741    0.0000 C   0  0  0  0  0  0  0  0  0  0  0  0
   -9.5698   -1.7249    0.0000 N   0  0  0  0  0  0  0  0  0  0  0  0
  -10.8091   -0.8799    0.0000 C   0  0  0  0  0  0  0  0  0  0  0  0
   -9.6819   -3.2207    0.0000 C   0  0  0  0  0  0  0  0  0  0  0  0
   -6.9790   -1.9191    0.0000 C   0  0  0  0  0  0  0  0  0  0  0  0
   -7.0910   -3.4149    0.0000 O   0  0  0  0  0  0  0  0  0  0  0  0
   -3.3705    0.0000    0.0000 C   0  0  0  0  0  0  0  0  0  0  0  0
   -4.6098   -0.8450    0.0000 C   0  0  0  0  0  0  0  0  0  0  0  0
   -4.6098    0.8450    0.0000 O   0  0  0  0  0  0  0  0  0  0  0  0
   -3.0367    1.4624    0.0000 C   0  0  0  0  0  0  0  0  0  0  0  0
   -2.1015    2.6351    0.0000 C   0  0  0  0  0  0  0  0  0  0  0  0
   -3.0367    3.8079    0.0000 C   0  0  0  0  0  0  0  0  0  0  0  0
   -0.7500    3.2860    0.0000 C   0  0  0  0  0  0  0  0  0  0  0  0
   -1.0838    4.7484    0.0000 O   0  0  0  0  0  0  0  0  0  0  0  0
    0.7500    3.2860    0.0000 C   0  0  0  0  0  0  0  0  0  0  0  0
    1.0838    4.7484    0.0000 C   0  0  0  0  0  0  0  0  0  0  0  0
    2.1015    2.6351    0.0000 C   0  0  0  0  0  0  0  0  0  0  0  0
    3.0367    3.8079    0.0000 O   0  0  0  0  0  0  0  0  0  0  0  0
    3.0367    1.4624    0.0000 C   0  0  0  0  0  0  0  0  0  0  0  0
    3.7867    2.7614    0.0000 C   0  0  0  0  0  0  0  0  0  0  0  0
    4.5199    1.2388    0.0000 O   0  0  0  0  0  0  0  0  0  0  0  0
  1  2  1  0
  3  2  1  1
  3  4  1  0
  4  5  1  0
  5  6  2  0
  5  7  1  0
  7  8  1  6
  7  9  1  0
  9 10  1  1
 11 10  1  6
 11 12  1  0
 12 13  1  0
 13 14  1  1
 13 15  1  0
 15 16  1  0
 13 17  1  0
 17 18  1  6
 17 19  1  0
 19 20  1  1
 19 21  1  0
  9 22  1  0
 22 23  1  6
 22 24  1  0
 24 25  1  1
 26 25  1  1
 26 27  1  0
 27 28  1  0
 28 29  1  1
 28 30  1  0
 30 31  1  0
 31 32  1  1
 32 33  1  0
 32 34  1  0
 31 35  1  0
 35 36  1  6
 24 37  1  0
 37 38  1  1
 37 39  1  0
 37 40  1  0
 40 41  1  0
 41 42  1  1
 41 43  1  0
 43 44  2  0
 43 45  1  0
 45 46  1  6
 45 47  1  0
 47 48  1  1
 47 49  1  0
 49 50  1  1
 49 51  1  0
 49  3  1  0
 21 11  1  0
 35 26  1  0
M  END
>  <ChEMBL_IDs>  (1) 
CHEMBL532

>  <target_organism>  (1) 
Rattus norvegicus

>  <target_molecule_pref_name>  (1) 
ERYTHROMYCIN

>  <# Known Targets>  (1) 
20.0

>  <Known Targets>  (1) 
CHEMBL352,CHEMBL240,CHEMBL354,CHEMBL2203,CHEMBL347,CHEMBL4302,CHEMBL364,CHEMBL5306,CHEMBL3879801,CHEMBL340,CHEMBL2026,CHEMBL3253,CHEMBL612888,CHEMBL614421,CHEMBL2573,CHEMBL613271,CHEMBL4878,CHEMBL359,CHEMBL374,CHEMBL612545

>  <smiles>  (1) 
CC[C@H]1OC(=O)[C@H](C)[C@@H](O[C@H]2C[C@@](C)(OC)[C@@H](O)[C@H](C)O2)[C@H](C)[C@@H](O[C@@H]2O[C@H](C)C[C@H](N(C)C)[C@H]2O)[C@](C)(O)C[C@@H](C)C(=O)[C@H](C)[C@@H](O)[C@]1(C)O

$$$$

     RDKit          2D

 51 53  0  0  0  0  0  0  0  0999 V2000
    5.6205   -1.2990    0.0000 C   0  0  0  0  0  0  0  0  0  0  0  0
    4.8705    0.0000    0.0000 C   0  0  0  0  0  0  0  0  0  0  0  0
    3.3705    0.0000    0.0000 C   0  0  0  0  0  0  0  0  0  0  0  0
    3.0367   -1.4624    0.0000 O   0  0  0  0  0  0  0  0  0  0  0  0
    2.1015   -2.6351    0.0000 C   0  0  0  0  0  0  0  0  0  0  0  0
    3.0367   -3.8079    0.0000 O   0  0  0  0  0  0  0  0  0  0  0  0
    0.7500   -3.2860    0.0000 C   0  0  0  0  0  0  0  0  0  0  0  0
    1.3600   -4.4903    0.0000 C   0  0  0  0  0  0  0  0  0  0  0  0
   -0.7500   -3.2860    0.0000 C   0  0  0  0  0  0  0  0  0  0  0  0
   -1.0838   -4.7484    0.0000 O   0  0  0  0  0  0  0  0  0  0  0  0
    0.0158   -5.7686    0.0000 C   0  0  0  0  0  0  0  0  0  0  0  0
   -0.3180   -7.2310    0.0000 C   0  0  0  0  0  0  0  0  0  0  0  0
    0.7816   -8.2513    0.0000 C   0  0  0  0  0  0  0  0  0  0  0  0
    1.4659   -9.5861    0.0000 C   0  0  0  0  0  0  0  0  0  0  0  0
   -0.4141   -9.1570    0.0000 O   0  0  0  0  0  0  0  0  0  0  0  0
   -0.2276  -10.6453    0.0000 C   0  0  0  0  0  0  0  0  0  0  0  0
    2.2150   -7.8091    0.0000 C   0  0  0  0  0  0  0  0  0  0  0  0
    3.3145   -8.8294    0.0000 O   0  0  0  0  0  0  0  0  0  0  0  0
    2.5487   -6.3467    0.0000 C   0  0  0  0  0  0  0  0  0  0  0  0
    3.9821   -5.9046    0.0000 C   0  0  0  0  0  0  0  0  0  0  0  0
    1.4492   -5.3265    0.0000 O   0  0  0  0  0  0  0  0  0  0  0  0
   -2.1015   -2.6351    0.0000 C   0  0  0  0  0  0  0  0  0  0  0  0
   -3.0367   -3.8079    0.0000 C   0  0  0  0  0  0  0  0  0  0  0  0
   -3.0367   -1.4624    0.0000 C   0  0  0  0  0  0  0  0  0  0  0  0
   -4.3881   -2.1132    0.0000 O   0  0  0  0  0  0  0  0  0  0  0  0
   -5.6275   -1.2682    0.0000 C   0  0  0  0  0  0  0  0  0  0  0  0
   -5.5154    0.2276    0.0000 O   0  0  0  0  0  0  0  0  0  0  0  0
   -6.7548    1.0725    0.0000 C   0  0  0  0  0  0  0  0  0  0  0  0
   -6.6427    2.5684    0.0000 C   0  0  0  0  0  0  0  0  0  0  0  0
   -8.1062    0.4217    0.0000 C   0  0  0  0  0  0  0  0  0  0  0  0
   -8.2183   -1.0741    0.0000 C   0  0  0  0  0  0  0  0  0  0  0  0
   -9.5698   -1.7249    0.0000 N   0  0  0  0  0  0  0  0  0  0  0  0
  -10.8091   -0.8799    0.0000 C   0  0  0  0  0  0  0  0  0  0  0  0
   -9.6819   -3.2207    0.0000 C   0  0  0  0  0  0  0  0  0  0  0  0
   -6.9790   -1.9191    0.0000 C   0  0  0  0  0  0  0  0  0  0  0  0
   -7.0910   -3.4149    0.0000 O   0  0  0  0  0  0  0  0  0  0  0  0
   -3.3705    0.0000    0.0000 C   0  0  0  0  0  0  0  0  0  0  0  0
   -4.6098   -0.8450    0.0000 C   0  0  0  0  0  0  0  0  0  0  0  0
   -4.6098    0.8450    0.0000 O   0  0  0  0  0  0  0  0  0  0  0  0
   -3.0367    1.4624    0.0000 C   0  0  0  0  0  0  0  0  0  0  0  0
   -2.1015    2.6351    0.0000 C   0  0  0  0  0  0  0  0  0  0  0  0
   -3.0367    3.8079    0.0000 C   0  0  0  0  0  0  0  0  0  0  0  0
   -0.7500    3.2860    0.0000 C   0  0  0  0  0  0  0  0  0  0  0  0
   -1.0838    4.7484    0.0000 O   0  0  0  0  0  0  0  0  0  0  0  0
    0.7500    3.2860    0.0000 C   0  0  0  0  0  0  0  0  0  0  0  0
    1.0838    4.7484    0.0000 C   0  0  0  0  0  0  0  0  0  0  0  0
    2.1015    2.6351    0.0000 C   0  0  0  0  0  0  0  0  0  0  0  0
    3.0367    3.8079    0.0000 O   0  0  0  0  0  0  0  0  0  0  0  0
    3.0367    1.4624    0.0000 C   0  0  0  0  0  0  0  0  0  0  0  0
    3.7867    2.7614    0.0000 C   0  0  0  0  0  0  0  0  0  0  0  0
    4.5199    1.2388    0.0000 O   0  0  0  0  0  0  0  0  0  0  0  0
  1  2  1  0
  3  2  1  1
  3  4  1  0
  4  5  1  0
  5  6  2  0
  5  7  1  0
  7  8  1  6
  7  9  1  0
  9 10  1  1
 11 10  1  6
 11 12  1  0
 12 13  1  0
 13 14  1  1
 13 15  1  0
 15 16  1  0
 13 17  1  0
 17 18  1  6
 17 19  1  0
 19 20  1  1
 19 21  1  0
  9 22  1  0
 22 23  1  6
 22 24  1  0
 24 25  1  1
 26 25  1  1
 26 27  1  0
 27 28  1  0
 28 29  1  1
 28 30  1  0
 30 31  1  0
 31 32  1  1
 32 33  1  0
 32 34  1  0
 31 35  1  0
 35 36  1  6
 24 37  1  0
 37 38  1  1
 37 39  1  0
 37 40  1  0
 40 41  1  0
 41 42  1  1
 41 43  1  0
 43 44  2  0
 43 45  1  0
 45 46  1  6
 45 47  1  0
 47 48  1  1
 47 49  1  0
 49 50  1  1
 49 51  1  0
 49  3  1  0
 21 11  1  0
 35 26  1  0
M  END
>  <ChEMBL_IDs>  (2) 
CHEMBL532

>  <target_organism>  (2) 
Rattus norvegicus

>  <target_molecule_pref_name>  (2) 
ERYTHROMYCIN

>  <# Known Targets>  (2) 
20.0

>  <Known Targets>  (2) 
CHEMBL352,CHEMBL240,CHEMBL354,CHEMBL2203,CHEMBL347,CHEMBL4302,CHEMBL364,CHEMBL5306,CHEMBL3879801,CHEMBL340,CHEMBL2026,CHEMBL3253,CHEMBL612888,CHEMBL614421,CHEMBL2573,CHEMBL613271,CHEMBL4878,CHEMBL359,CHEMBL374,CHEMBL612545

>  <smiles>  (2) 
CC[C@H]1OC(=O)[C@H](C)[C@@H](O[C@H]2C[C@@](C)(OC)[C@@H](O)[C@H](C)O2)[C@H](C)[C@@H](O[C@@H]2O[C@H](C)C[C@H](N(C)C)[C@H]2O)[C@](C)(O)C[C@@H](C)C(=O)[C@H](C)[C@@H](O)[C@]1(C)O

$$$$

     RDKit          2D

 51 53  0  0  0  0  0  0  0  0999 V2000
    5.6205   -1.2990    0.0000 C   0  0  0  0  0  0  0  0  0  0  0  0
    4.8705    0.0000    0.0000 C   0  0  0  0  0  0  0  0  0  0  0  0
    3.3705    0.0000    0.0000 C   0  0  0  0  0  0  0  0  0  0  0  0
    3.0367   -1.4624    0.0000 O   0  0  0  0  0  0  0  0  0  0  0  0
    2.1015   -2.6351    0.0000 C   0  0  0  0  0  0  0  0  0  0  0  0
    3.0367   -3.8079    0.0000 O   0  0  0  0  0  0  0  0  0  0  0  0
    0.7500   -3.2860    0.0000 C   0  0  0  0  0  0  0  0  0  0  0  0
    1.3600   -4.4903    0.0000 C   0  0  0  0  0  0  0  0  0  0  0  0
   -0.7500   -3.2860    0.0000 C   0  0  0  0  0  0  0  0  0  0  0  0
   -1.0838   -4.7484    0.0000 O   0  0  0  0  0  0  0  0  0  0  0  0
    0.0158   -5.7686    0.0000 C   0  0  0  0  0  0  0  0  0  0  0  0
   -0.3180   -7.2310    0.0000 C   0  0  0  0  0  0  0  0  0  0  0  0
    0.7816   -8.2513    0.0000 C   0  0  0  0  0  0  0  0  0  0  0  0
    1.4659   -9.5861    0.0000 C   0  0  0  0  0  0  0  0  0  0  0  0
   -0.4141   -9.1570    0.0000 O   0  0  0  0  0  0  0  0  0  0  0  0
   -0.2276  -10.6453    0.0000 C   0  0  0  0  0  0  0  0  0  0  0  0
    2.2150   -7.8091    0.0000 C   0  0  0  0  0  0  0  0  0  0  0  0
    3.3145   -8.8294    0.0000 O   0  0  0  0  0  0  0  0  0  0  0  0
    2.5487   -6.3467    0.0000 C   0  0  0  0  0  0  0  0  0  0  0  0
    3.9821   -5.9046    0.0000 C   0  0  0  0  0  0  0  0  0  0  0  0
    1.4492   -5.3265    0.0000 O   0  0  0  0  0  0  0  0  0  0  0  0
   -2.1015   -2.6351    0.0000 C   0  0  0  0  0  0  0  0  0  0  0  0
   -3.0367   -3.8079    0.0000 C   0  0  0  0  0  0  0  0  0  0  0  0
   -3.0367   -1.4624    0.0000 C   0  0  0  0  0  0  0  0  0  0  0  0
   -4.3881   -2.1132    0.0000 O   0  0  0  0  0  0  0  0  0  0  0  0
   -5.6275   -1.2682    0.0000 C   0  0  0  0  0  0  0  0  0  0  0  0
   -5.5154    0.2276    0.0000 O   0  0  0  0  0  0  0  0  0  0  0  0
   -6.7548    1.0725    0.0000 C   0  0  0  0  0  0  0  0  0  0  0  0
   -6.6427    2.5684    0.0000 C   0  0  0  0  0  0  0  0  0  0  0  0
   -8.1062    0.4217    0.0000 C   0  0  0  0  0  0  0  0  0  0  0  0
   -8.2183   -1.0741    0.0000 C   0  0  0  0  0  0  0  0  0  0  0  0
   -9.5698   -1.7249    0.0000 N   0  0  0  0  0  0  0  0  0  0  0  0
  -10.8091   -0.8799    0.0000 C   0  0  0  0  0  0  0  0  0  0  0  0
   -9.6819   -3.2207    0.0000 C   0  0  0  0  0  0  0  0  0  0  0  0
   -6.9790   -1.9191    0.0000 C   0  0  0  0  0  0  0  0  0  0  0  0
   -7.0910   -3.4149    0.0000 O   0  0  0  0  0  0  0  0  0  0  0  0
   -3.3705    0.0000    0.0000 C   0  0  0  0  0  0  0  0  0  0  0  0
   -4.6098   -0.8450    0.0000 C   0  0  0  0  0  0  0  0  0  0  0  0
   -4.6098    0.8450    0.0000 O   0  0  0  0  0  0  0  0  0  0  0  0
   -3.0367    1.4624    0.0000 C   0  0  0  0  0  0  0  0  0  0  0  0
   -2.1015    2.6351    0.0000 C   0  0  0  0  0  0  0  0  0  0  0  0
   -3.0367    3.8079    0.0000 C   0  0  0  0  0  0  0  0  0  0  0  0
   -0.7500    3.2860    0.0000 C   0  0  0  0  0  0  0  0  0  0  0  0
   -1.0838    4.7484    0.0000 O   0  0  0  0  0  0  0  0  0  0  0  0
    0.7500    3.2860    0.0000 C   0  0  0  0  0  0  0  0  0  0  0  0
    1.0838    4.7484    0.0000 C   0  0  0  0  0  0  0  0  0  0  0  0
    2.1015    2.6351    0.0000 C   0  0  0  0  0  0  0  0  0  0  0  0
    3.0367    3.8079    0.0000 O   0  0  0  0  0  0  0  0  0  0  0  0
    3.0367    1.4624    0.0000 C   0  0  0  0  0  0  0  0  0  0  0  0
    3.7867    2.7614    0.0000 C   0  0  0  0  0  0  0  0  0  0  0  0
    4.5199    1.2388    0.0000 O   0  0  0  0  0  0  0  0  0  0  0  0
  1  2  1  0
  3  2  1  1
  3  4  1  0
  4  5  1  0
  5  6  2  0
  5  7  1  0
  7  8  1  6
  7  9  1  0
  9 10  1  1
 11 10  1  6
 11 12  1  0
 12 13  1  0
 13 14  1  1
 13 15  1  0
 15 16  1  0
 13 17  1  0
 17 18  1  6
 17 19  1  0
 19 20  1  1
 19 21  1  0
  9 22  1  0
 22 23  1  6
 22 24  1  0
 24 25  1  1
 26 25  1  1
 26 27  1  0
 27 28  1  0
 28 29  1  1
 28 30  1  0
 30 31  1  0
 31 32  1  1
 32 33  1  0
 32 34  1  0
 31 35  1  0
 35 36  1  6
 24 37  1  0
 37 38  1  1
 37 39  1  0
 37 40  1  0
 40 41  1  0
 41 42  1  1
 41 43  1  0
 43 44  2  0
 43 45  1  0
 45 46  1  6
 45 47  1  0
 47 48  1  1
 47 49  1  0
 49 50  1  1
 49 51  1  0
 49  3  1  0
 21 11  1  0
 35 26  1  0
M  END
>  <ChEMBL_IDs>  (3) 
CHEMBL532

>  <target_organism>  (3) 
Rattus norvegicus

>  <target_molecule_pref_name>  (3) 
ERYTHROMYCIN

>  <# Known Targets>  (3) 
20.0

>  <Known Targets>  (3) 
CHEMBL352,CHEMBL240,CHEMBL354,CHEMBL2203,CHEMBL347,CHEMBL4302,CHEMBL364,CHEMBL5306,CHEMBL3879801,CHEMBL340,CHEMBL2026,CHEMBL3253,CHEMBL612888,CHEMBL614421,CHEMBL2573,CHEMBL613271,CHEMBL4878,CHEMBL359,CHEMBL374,CHEMBL612545

>  <smiles>  (3) 
CC[C@H]1OC(=O)[C@H](C)[C@@H](O[C@H]2C[C@@](C)(OC)[C@@H](O)[C@H](C)O2)[C@H](C)[C@@H](O[C@@H]2O[C@H](C)C[C@H](N(C)C)[C@H]2O)[C@](C)(O)C[C@@H](C)C(=O)[C@H](C)[C@@H](O)[C@]1(C)O

$$$$

     RDKit          2D

 51 53  0  0  0  0  0  0  0  0999 V2000
    5.6205   -1.2990    0.0000 C   0  0  0  0  0  0  0  0  0  0  0  0
    4.8705    0.0000    0.0000 C   0  0  0  0  0  0  0  0  0  0  0  0
    3.3705    0.0000    0.0000 C   0  0  0  0  0  0  0  0  0  0  0  0
    3.0367   -1.4624    0.0000 O   0  0  0  0  0  0  0  0  0  0  0  0
    2.1015   -2.6351    0.0000 C   0  0  0  0  0  0  0  0  0  0  0  0
    3.0367   -3.8079    0.0000 O   0  0  0  0  0  0  0  0  0  0  0  0
    0.7500   -3.2860    0.0000 C   0  0  0  0  0  0  0  0  0  0  0  0
    1.3600   -4.4903    0.0000 C   0  0  0  0  0  0  0  0  0  0  0  0
   -0.7500   -3.2860    0.0000 C   0  0  0  0  0  0  0  0  0  0  0  0
   -1.0838   -4.7484    0.0000 O   0  0  0  0  0  0  0  0  0  0  0  0
    0.0158   -5.7686    0.0000 C   0  0  0  0  0  0  0  0  0  0  0  0
   -0.3180   -7.2310    0.0000 C   0  0  0  0  0  0  0  0  0  0  0  0
    0.7816   -8.2513    0.0000 C   0  0  0  0  0  0  0  0  0  0  0  0
    1.4659   -9.5861    0.0000 C   0  0  0  0  0  0  0  0  0  0  0  0
   -0.4141   -9.1570    0.0000 O   0  0  0  0  0  0  0  0  0  0  0  0
   -0.2276  -10.6453    0.0000 C   0  0  0  0  0  0  0  0  0  0  0  0
    2.2150   -7.8091    0.0000 C   0  0  0  0  0  0  0  0  0  0  0  0
    3.3145   -8.8294    0.0000 O   0  0  0  0  0  0  0  0  0  0  0  0
    2.5487   -6.3467    0.0000 C   0  0  0  0  0  0  0  0  0  0  0  0
    3.9821   -5.9046    0.0000 C   0  0  0  0  0  0  0  0  0  0  0  0
    1.4492   -5.3265    0.0000 O   0  0  0  0  0  0  0  0  0  0  0  0
   -2.1015   -2.6351    0.0000 C   0  0  0  0  0  0  0  0  0  0  0  0
   -3.0367   -3.8079    0.0000 C   0  0  0  0  0  0  0  0  0  0  0  0
   -3.0367   -1.4624    0.0000 C   0  0  0  0  0  0  0  0  0  0  0  0
   -4.3881   -2.1132    0.0000 O   0  0  0  0  0  0  0  0  0  0  0  0
   -5.6275   -1.2682    0.0000 C   0  0  0  0  0  0  0  0  0  0  0  0
   -5.5154    0.2276    0.0000 O   0  0  0  0  0  0  0  0  0  0  0  0
   -6.7548    1.0725    0.0000 C   0  0  0  0  0  0  0  0  0  0  0  0
   -6.6427    2.5684    0.0000 C   0  0  0  0  0  0  0  0  0  0  0  0
   -8.1062    0.4217    0.0000 C   0  0  0  0  0  0  0  0  0  0  0  0
   -8.2183   -1.0741    0.0000 C   0  0  0  0  0  0  0  0  0  0  0  0
   -9.5698   -1.7249    0.0000 N   0  0  0  0  0  0  0  0  0  0  0  0
  -10.8091   -0.8799    0.0000 C   0  0  0  0  0  0  0  0  0  0  0  0
   -9.6819   -3.2207    0.0000 C   0  0  0  0  0  0  0  0  0  0  0  0
   -6.9790   -1.9191    0.0000 C   0  0  0  0  0  0  0  0  0  0  0  0
   -7.0910   -3.4149    0.0000 O   0  0  0  0  0  0  0  0  0  0  0  0
   -3.3705    0.0000    0.0000 C   0  0  0  0  0  0  0  0  0  0  0  0
   -4.6098   -0.8450    0.0000 C   0  0  0  0  0  0  0  0  0  0  0  0
   -4.6098    0.8450    0.0000 O   0  0  0  0  0  0  0  0  0  0  0  0
   -3.0367    1.4624    0.0000 C   0  0  0  0  0  0  0  0  0  0  0  0
   -2.1015    2.6351    0.0000 C   0  0  0  0  0  0  0  0  0  0  0  0
   -3.0367    3.8079    0.0000 C   0  0  0  0  0  0  0  0  0  0  0  0
   -0.7500    3.2860    0.0000 C   0  0  0  0  0  0  0  0  0  0  0  0
   -1.0838    4.7484    0.0000 O   0  0  0  0  0  0  0  0  0  0  0  0
    0.7500    3.2860    0.0000 C   0  0  0  0  0  0  0  0  0  0  0  0
    1.0838    4.7484    0.0000 C   0  0  0  0  0  0  0  0  0  0  0  0
    2.1015    2.6351    0.0000 C   0  0  0  0  0  0  0  0  0  0  0  0
    3.0367    3.8079    0.0000 O   0  0  0  0  0  0  0  0  0  0  0  0
    3.0367    1.4624    0.0000 C   0  0  0  0  0  0  0  0  0  0  0  0
    3.7867    2.7614    0.0000 C   0  0  0  0  0  0  0  0  0  0  0  0
    4.5199    1.2388    0.0000 O   0  0  0  0  0  0  0  0  0  0  0  0
  1  2  1  0
  3  2  1  1
  3  4  1  0
  4  5  1  0
  5  6  2  0
  5  7  1  0
  7  8  1  6
  7  9  1  0
  9 10  1  1
 11 10  1  6
 11 12  1  0
 12 13  1  0
 13 14  1  1
 13 15  1  0
 15 16  1  0
 13 17  1  0
 17 18  1  6
 17 19  1  0
 19 20  1  1
 19 21  1  0
  9 22  1  0
 22 23  1  6
 22 24  1  0
 24 25  1  1
 26 25  1  1
 26 27  1  0
 27 28  1  0
 28 29  1  1
 28 30  1  0
 30 31  1  0
 31 32  1  1
 32 33  1  0
 32 34  1  0
 31 35  1  0
 35 36  1  6
 24 37  1  0
 37 38  1  1
 37 39  1  0
 37 40  1  0
 40 41  1  0
 41 42  1  1
 41 43  1  0
 43 44  2  0
 43 45  1  0
 45 46  1  6
 45 47  1  0
 47 48  1  1
 47 49  1  0
 49 50  1  1
 49 51  1  0
 49  3  1  0
 21 11  1  0
 35 26  1  0
M  END
>  <ChEMBL_IDs>  (4) 
CHEMBL532

>  <target_organism>  (4) 
Rattus norvegicus

>  <target_molecule_pref_name>  (4) 
ERYTHROMYCIN

>  <# Known Targets>  (4) 
20.0

>  <Known Targets>  (4) 
CHEMBL352,CHEMBL240,CHEMBL354,CHEMBL2203,CHEMBL347,CHEMBL4302,CHEMBL364,CHEMBL5306,CHEMBL3879801,CHEMBL340,CHEMBL2026,CHEMBL3253,CHEMBL612888,CHEMBL614421,CHEMBL2573,CHEMBL613271,CHEMBL4878,CHEMBL359,CHEMBL374,CHEMBL612545

>  <smiles>  (4) 
CC[C@H]1OC(=O)[C@H](C)[C@@H](O[C@H]2C[C@@](C)(OC)[C@@H](O)[C@H](C)O2)[C@H](C)[C@@H](O[C@@H]2O[C@H](C)C[C@H](N(C)C)[C@H]2O)[C@](C)(O)C[C@@H](C)C(=O)[C@H](C)[C@@H](O)[C@]1(C)O

$$$$

     RDKit          2D

 51 53  0  0  0  0  0  0  0  0999 V2000
    5.6205   -1.2990    0.0000 C   0  0  0  0  0  0  0  0  0  0  0  0
    4.8705    0.0000    0.0000 C   0  0  0  0  0  0  0  0  0  0  0  0
    3.3705    0.0000    0.0000 C   0  0  0  0  0  0  0  0  0  0  0  0
    3.0367   -1.4624    0.0000 O   0  0  0  0  0  0  0  0  0  0  0  0
    2.1015   -2.6351    0.0000 C   0  0  0  0  0  0  0  0  0  0  0  0
    3.0367   -3.8079    0.0000 O   0  0  0  0  0  0  0  0  0  0  0  0
    0.7500   -3.2860    0.0000 C   0  0  0  0  0  0  0  0  0  0  0  0
    1.3600   -4.4903    0.0000 C   0  0  0  0  0  0  0  0  0  0  0  0
   -0.7500   -3.2860    0.0000 C   0  0  0  0  0  0  0  0  0  0  0  0
   -1.0838   -4.7484    0.0000 O   0  0  0  0  0  0  0  0  0  0  0  0
    0.0158   -5.7686    0.0000 C   0  0  0  0  0  0  0  0  0  0  0  0
   -0.3180   -7.2310    0.0000 C   0  0  0  0  0  0  0  0  0  0  0  0
    0.7816   -8.2513    0.0000 C   0  0  0  0  0  0  0  0  0  0  0  0
    1.4659   -9.5861    0.0000 C   0  0  0  0  0  0  0  0  0  0  0  0
   -0.4141   -9.1570    0.0000 O   0  0  0  0  0  0  0  0  0  0  0  0
   -0.2276  -10.6453    0.0000 C   0  0  0  0  0  0  0  0  0  0  0  0
    2.2150   -7.8091    0.0000 C   0  0  0  0  0  0  0  0  0  0  0  0
    3.3145   -8.8294    0.0000 O   0  0  0  0  0  0  0  0  0  0  0  0
    2.5487   -6.3467    0.0000 C   0  0  0  0  0  0  0  0  0  0  0  0
    3.9821   -5.9046    0.0000 C   0  0  0  0  0  0  0  0  0  0  0  0
    1.4492   -5.3265    0.0000 O   0  0  0  0  0  0  0  0  0  0  0  0
   -2.1015   -2.6351    0.0000 C   0  0  0  0  0  0  0  0  0  0  0  0
   -3.0367   -3.8079    0.0000 C   0  0  0  0  0  0  0  0  0  0  0  0
   -3.0367   -1.4624    0.0000 C   0  0  0  0  0  0  0  0  0  0  0  0
   -4.3881   -2.1132    0.0000 O   0  0  0  0  0  0  0  0  0  0  0  0
   -5.6275   -1.2682    0.0000 C   0  0  0  0  0  0  0  0  0  0  0  0
   -5.5154    0.2276    0.0000 O   0  0  0  0  0  0  0  0  0  0  0  0
   -6.7548    1.0725    0.0000 C   0  0  0  0  0  0  0  0  0  0  0  0
   -6.6427    2.5684    0.0000 C   0  0  0  0  0  0  0  0  0  0  0  0
   -8.1062    0.4217    0.0000 C   0  0  0  0  0  0  0  0  0  0  0  0
   -8.2183   -1.0741    0.0000 C   0  0  0  0  0  0  0  0  0  0  0  0
   -9.5698   -1.7249    0.0000 N   0  0  0  0  0  0  0  0  0  0  0  0
  -10.8091   -0.8799    0.0000 C   0  0  0  0  0  0  0  0  0  0  0  0
   -9.6819   -3.2207    0.0000 C   0  0  0  0  0  0  0  0  0  0  0  0
   -6.9790   -1.9191    0.0000 C   0  0  0  0  0  0  0  0  0  0  0  0
   -7.0910   -3.4149    0.0000 O   0  0  0  0  0  0  0  0  0  0  0  0
   -3.3705    0.0000    0.0000 C   0  0  0  0  0  0  0  0  0  0  0  0
   -4.6098   -0.8450    0.0000 C   0  0  0  0  0  0  0  0  0  0  0  0
   -4.6098    0.8450    0.0000 O   0  0  0  0  0  0  0  0  0  0  0  0
   -3.0367    1.4624    0.0000 C   0  0  0  0  0  0  0  0  0  0  0  0
   -2.1015    2.6351    0.0000 C   0  0  0  0  0  0  0  0  0  0  0  0
   -3.0367    3.8079    0.0000 C   0  0  0  0  0  0  0  0  0  0  0  0
   -0.7500    3.2860    0.0000 C   0  0  0  0  0  0  0  0  0  0  0  0
   -1.0838    4.7484    0.0000 O   0  0  0  0  0  0  0  0  0  0  0  0
    0.7500    3.2860    0.0000 C   0  0  0  0  0  0  0  0  0  0  0  0
    1.0838    4.7484    0.0000 C   0  0  0  0  0  0  0  0  0  0  0  0
    2.1015    2.6351    0.0000 C   0  0  0  0  0  0  0  0  0  0  0  0
    3.0367    3.8079    0.0000 O   0  0  0  0  0  0  0  0  0  0  0  0
    3.0367    1.4624    0.0000 C   0  0  0  0  0  0  0  0  0  0  0  0
    3.7867    2.7614    0.0000 C   0  0  0  0  0  0  0  0  0  0  0  0
    4.5199    1.2388    0.0000 O   0  0  0  0  0  0  0  0  0  0  0  0
  1  2  1  0
  3  2  1  1
  3  4  1  0
  4  5  1  0
  5  6  2  0
  5  7  1  0
  7  8  1  6
  7  9  1  0
  9 10  1  1
 11 10  1  6
 11 12  1  0
 12 13  1  0
 13 14  1  1
 13 15  1  0
 15 16  1  0
 13 17  1  0
 17 18  1  6
 17 19  1  0
 19 20  1  1
 19 21  1  0
  9 22  1  0
 22 23  1  6
 22 24  1  0
 24 25  1  1
 26 25  1  1
 26 27  1  0
 27 28  1  0
 28 29  1  1
 28 30  1  0
 30 31  1  0
 31 32  1  1
 32 33  1  0
 32 34  1  0
 31 35  1  0
 35 36  1  6
 24 37  1  0
 37 38  1  1
 37 39  1  0
 37 40  1  0
 40 41  1  0
 41 42  1  1
 41 43  1  0
 43 44  2  0
 43 45  1  0
 45 46  1  6
 45 47  1  0
 47 48  1  1
 47 49  1  0
 49 50  1  1
 49 51  1  0
 49  3  1  0
 21 11  1  0
 35 26  1  0
M  END
>  <ChEMBL_IDs>  (5) 
CHEMBL532

>  <target_organism>  (5) 
Rattus norvegicus

>  <target_molecule_pref_name>  (5) 
ERYTHROMYCIN

>  <# Known Targets>  (5) 
20.0

>  <Known Targets>  (5) 
CHEMBL352,CHEMBL240,CHEMBL354,CHEMBL2203,CHEMBL347,CHEMBL4302,CHEMBL364,CHEMBL5306,CHEMBL3879801,CHEMBL340,CHEMBL2026,CHEMBL3253,CHEMBL612888,CHEMBL614421,CHEMBL2573,CHEMBL613271,CHEMBL4878,CHEMBL359,CHEMBL374,CHEMBL612545

>  <smiles>  (5) 
CC[C@H]1OC(=O)[C@H](C)[C@@H](O[C@H]2C[C@@](C)(OC)[C@@H](O)[C@H](C)O2)[C@H](C)[C@@H](O[C@@H]2O[C@H](C)C[C@H](N(C)C)[C@H]2O)[C@](C)(O)C[C@@H](C)C(=O)[C@H](C)[C@@H](O)[C@]1(C)O

$$$$

     RDKit          2D

 51 53  0  0  0  0  0  0  0  0999 V2000
    5.6205   -1.2990    0.0000 C   0  0  0  0  0  0  0  0  0  0  0  0
    4.8705    0.0000    0.0000 C   0  0  0  0  0  0  0  0  0  0  0  0
    3.3705    0.0000    0.0000 C   0  0  0  0  0  0  0  0  0  0  0  0
    3.0367   -1.4624    0.0000 O   0  0  0  0  0  0  0  0  0  0  0  0
    2.1015   -2.6351    0.0000 C   0  0  0  0  0  0  0  0  0  0  0  0
    3.0367   -3.8079    0.0000 O   0  0  0  0  0  0  0  0  0  0  0  0
    0.7500   -3.2860    0.0000 C   0  0  0  0  0  0  0  0  0  0  0  0
    1.3600   -4.4903    0.0000 C   0  0  0  0  0  0  0  0  0  0  0  0
   -0.7500   -3.2860    0.0000 C   0  0  0  0  0  0  0  0  0  0  0  0
   -1.0838   -4.7484    0.0000 O   0  0  0  0  0  0  0  0  0  0  0  0
    0.0158   -5.7686    0.0000 C   0  0  0  0  0  0  0  0  0  0  0  0
   -0.3180   -7.2310    0.0000 C   0  0  0  0  0  0  0  0  0  0  0  0
    0.7816   -8.2513    0.0000 C   0  0  0  0  0  0  0  0  0  0  0  0
    1.4659   -9.5861    0.0000 C   0  0  0  0  0  0  0  0  0  0  0  0
   -0.4141   -9.1570    0.0000 O   0  0  0  0  0  0  0  0  0  0  0  0
   -0.2276  -10.6453    0.0000 C   0  0  0  0  0  0  0  0  0  0  0  0
    2.2150   -7.8091    0.0000 C   0  0  0  0  0  0  0  0  0  0  0  0
    3.3145   -8.8294    0.0000 O   0  0  0  0  0  0  0  0  0  0  0  0
    2.5487   -6.3467    0.0000 C   0  0  0  0  0  0  0  0  0  0  0  0
    3.9821   -5.9046    0.0000 C   0  0  0  0  0  0  0  0  0  0  0  0
    1.4492   -5.3265    0.0000 O   0  0  0  0  0  0  0  0  0  0  0  0
   -2.1015   -2.6351    0.0000 C   0  0  0  0  0  0  0  0  0  0  0  0
   -3.0367   -3.8079    0.0000 C   0  0  0  0  0  0  0  0  0  0  0  0
   -3.0367   -1.4624    0.0000 C   0  0  0  0  0  0  0  0  0  0  0  0
   -4.3881   -2.1132    0.0000 O   0  0  0  0  0  0  0  0  0  0  0  0
   -5.6275   -1.2682    0.0000 C   0  0  0  0  0  0  0  0  0  0  0  0
   -5.5154    0.2276    0.0000 O   0  0  0  0  0  0  0  0  0  0  0  0
   -6.7548    1.0725    0.0000 C   0  0  0  0  0  0  0  0  0  0  0  0
   -6.6427    2.5684    0.0000 C   0  0  0  0  0  0  0  0  0  0  0  0
   -8.1062    0.4217    0.0000 C   0  0  0  0  0  0  0  0  0  0  0  0
   -8.2183   -1.0741    0.0000 C   0  0  0  0  0  0  0  0  0  0  0  0
   -9.5698   -1.7249    0.0000 N   0  0  0  0  0  0  0  0  0  0  0  0
  -10.8091   -0.8799    0.0000 C   0  0  0  0  0  0  0  0  0  0  0  0
   -9.6819   -3.2207    0.0000 C   0  0  0  0  0  0  0  0  0  0  0  0
   -6.9790   -1.9191    0.0000 C   0  0  0  0  0  0  0  0  0  0  0  0
   -7.0910   -3.4149    0.0000 O   0  0  0  0  0  0  0  0  0  0  0  0
   -3.3705    0.0000    0.0000 C   0  0  0  0  0  0  0  0  0  0  0  0
   -4.6098   -0.8450    0.0000 C   0  0  0  0  0  0  0  0  0  0  0  0
   -4.6098    0.8450    0.0000 O   0  0  0  0  0  0  0  0  0  0  0  0
   -3.0367    1.4624    0.0000 C   0  0  0  0  0  0  0  0  0  0  0  0
   -2.1015    2.6351    0.0000 C   0  0  0  0  0  0  0  0  0  0  0  0
   -3.0367    3.8079    0.0000 C   0  0  0  0  0  0  0  0  0  0  0  0
   -0.7500    3.2860    0.0000 C   0  0  0  0  0  0  0  0  0  0  0  0
   -1.0838    4.7484    0.0000 O   0  0  0  0  0  0  0  0  0  0  0  0
    0.7500    3.2860    0.0000 C   0  0  0  0  0  0  0  0  0  0  0  0
    1.0838    4.7484    0.0000 C   0  0  0  0  0  0  0  0  0  0  0  0
    2.1015    2.6351    0.0000 C   0  0  0  0  0  0  0  0  0  0  0  0
    3.0367    3.8079    0.0000 O   0  0  0  0  0  0  0  0  0  0  0  0
    3.0367    1.4624    0.0000 C   0  0  0  0  0  0  0  0  0  0  0  0
    3.7867    2.7614    0.0000 C   0  0  0  0  0  0  0  0  0  0  0  0
    4.5199    1.2388    0.0000 O   0  0  0  0  0  0  0  0  0  0  0  0
  1  2  1  0
  3  2  1  1
  3  4  1  0
  4  5  1  0
  5  6  2  0
  5  7  1  0
  7  8  1  6
  7  9  1  0
  9 10  1  1
 11 10  1  6
 11 12  1  0
 12 13  1  0
 13 14  1  1
 13 15  1  0
 15 16  1  0
 13 17  1  0
 17 18  1  6
 17 19  1  0
 19 20  1  1
 19 21  1  0
  9 22  1  0
 22 23  1  6
 22 24  1  0
 24 25  1  1
 26 25  1  1
 26 27  1  0
 27 28  1  0
 28 29  1  1
 28 30  1  0
 30 31  1  0
 31 32  1  1
 32 33  1  0
 32 34  1  0
 31 35  1  0
 35 36  1  6
 24 37  1  0
 37 38  1  1
 37 39  1  0
 37 40  1  0
 40 41  1  0
 41 42  1  1
 41 43  1  0
 43 44  2  0
 43 45  1  0
 45 46  1  6
 45 47  1  0
 47 48  1  1
 47 49  1  0
 49 50  1  1
 49 51  1  0
 49  3  1  0
 21 11  1  0
 35 26  1  0
M  END
>  <ChEMBL_IDs>  (6) 
CHEMBL532

>  <target_organism>  (6) 
Rattus norvegicus

>  <target_molecule_pref_name>  (6) 
ERYTHROMYCIN

>  <# Known Targets>  (6) 
20.0

>  <Known Targets>  (6) 
CHEMBL352,CHEMBL240,CHEMBL354,CHEMBL2203,CHEMBL347,CHEMBL4302,CHEMBL364,CHEMBL5306,CHEMBL3879801,CHEMBL340,CHEMBL2026,CHEMBL3253,CHEMBL612888,CHEMBL614421,CHEMBL2573,CHEMBL613271,CHEMBL4878,CHEMBL359,CHEMBL374,CHEMBL612545

>  <smiles>  (6) 
CC[C@H]1OC(=O)[C@H](C)[C@@H](O[C@H]2C[C@@](C)(OC)[C@@H](O)[C@H](C)O2)[C@H](C)[C@@H](O[C@@H]2O[C@H](C)C[C@H](N(C)C)[C@H]2O)[C@](C)(O)C[C@@H](C)C(=O)[C@H](C)[C@@H](O)[C@]1(C)O

$$$$

     RDKit          2D

 52 54  0  0  0  0  0  0  0  0999 V2000
    5.8573   -1.2990    0.0000 C   0  0  0  0  0  0  0  0  0  0  0  0
    5.1073    0.0000    0.0000 C   0  0  0  0  0  0  0  0  0  0  0  0
    3.6073    0.0000    0.0000 C   0  0  0  0  0  0  0  0  0  0  0  0
    3.2954    1.4672    0.0000 O   0  0  0  0  0  0  0  0  0  0  0  0
    2.4138    2.6807    0.0000 C   0  0  0  0  0  0  0  0  0  0  0  0
    3.4175    3.7955    0.0000 O   0  0  0  0  0  0  0  0  0  0  0  0
    1.1147    3.4307    0.0000 C   0  0  0  0  0  0  0  0  0  0  0  0
    1.8302    4.5756    0.0000 C   0  0  0  0  0  0  0  0  0  0  0  0
   -0.3771    3.5875    0.0000 C   0  0  0  0  0  0  0  0  0  0  0  0
   -0.5339    5.0793    0.0000 O   0  0  0  0  0  0  0  0  0  0  0  0
    0.6797    5.9610    0.0000 C   0  0  0  0  0  0  0  0  0  0  0  0
    0.5229    7.4528    0.0000 C   0  0  0  0  0  0  0  0  0  0  0  0
    1.7364    8.3345    0.0000 C   0  0  0  0  0  0  0  0  0  0  0  0
    2.5752    9.5780    0.0000 C   0  0  0  0  0  0  0  0  0  0  0  0
    0.6574    9.3764    0.0000 O   0  0  0  0  0  0  0  0  0  0  0  0
    1.0203   10.8319    0.0000 C   0  0  0  0  0  0  0  0  0  0  0  0
    3.1067    7.7244    0.0000 C   0  0  0  0  0  0  0  0  0  0  0  0
    4.3202    8.6060    0.0000 O   0  0  0  0  0  0  0  0  0  0  0  0
    3.2635    6.2326    0.0000 C   0  0  0  0  0  0  0  0  0  0  0  0
    4.6338    5.6225    0.0000 C   0  0  0  0  0  0  0  0  0  0  0  0
    2.0500    5.3509    0.0000 O   0  0  0  0  0  0  0  0  0  0  0  0
   -1.8037    3.1240    0.0000 C   0  0  0  0  0  0  0  0  0  0  0  0
   -2.5537    4.4231    0.0000 C   0  0  0  0  0  0  0  0  0  0  0  0
   -2.9184    2.1203    0.0000 C   0  0  0  0  0  0  0  0  0  0  0  0
   -4.1319    3.0020    0.0000 O   0  0  0  0  0  0  0  0  0  0  0  0
   -5.5022    2.3919    0.0000 C   0  0  0  0  0  0  0  0  0  0  0  0
   -6.7157    3.2736    0.0000 O   0  0  0  0  0  0  0  0  0  0  0  0
   -8.0861    2.6635    0.0000 C   0  0  0  0  0  0  0  0  0  0  0  0
   -9.2996    3.5451    0.0000 C   0  0  0  0  0  0  0  0  0  0  0  0
   -8.2428    1.1717    0.0000 C   0  0  0  0  0  0  0  0  0  0  0  0
   -7.0293    0.2900    0.0000 C   0  0  0  0  0  0  0  0  0  0  0  0
   -7.1861   -1.2018    0.0000 N   0  0  0  0  0  0  0  0  0  0  0  0
   -8.5564   -1.8119    0.0000 C   0  0  0  0  0  0  0  0  0  0  0  0
   -5.9726   -2.0835    0.0000 C   0  0  0  0  0  0  0  0  0  0  0  0
   -5.6590    0.9001    0.0000 C   0  0  0  0  0  0  0  0  0  0  0  0
   -5.0760    0.3564    0.0000 O   0  0  0  0  0  0  0  0  0  0  0  0
   -3.5285    0.7500    0.0000 C   0  0  0  0  0  0  0  0  0  0  0  0
   -4.2257    0.3635    0.0000 C   0  0  0  0  0  0  0  0  0  0  0  0
   -4.5705    1.8290    0.0000 O   0  0  0  0  0  0  0  0  0  0  0  0
   -3.5285   -0.7500    0.0000 C   0  0  0  0  0  0  0  0  0  0  0  0
   -2.9184   -2.1203    0.0000 C   0  0  0  0  0  0  0  0  0  0  0  0
   -4.1319   -3.0020    0.0000 C   0  0  0  0  0  0  0  0  0  0  0  0
   -1.8037   -3.1240    0.0000 C   0  0  0  0  0  0  0  0  0  0  0  0
   -0.3771   -3.5875    0.0000 N   0  0  0  0  0  0  0  0  0  0  0  0
   -0.5339   -5.0793    0.0000 C   0  0  0  0  0  0  0  0  0  0  0  0
    1.1147   -3.4307    0.0000 C   0  0  0  0  0  0  0  0  0  0  0  0
    1.5782   -4.8573    0.0000 C   0  0  0  0  0  0  0  0  0  0  0  0
    2.4138   -2.6807    0.0000 C   0  0  0  0  0  0  0  0  0  0  0  0
    3.4175   -3.7955    0.0000 O   0  0  0  0  0  0  0  0  0  0  0  0
    3.2954   -1.4672    0.0000 C   0  0  0  0  0  0  0  0  0  0  0  0
    4.7726   -1.2067    0.0000 C   0  0  0  0  0  0  0  0  0  0  0  0
    4.0903   -2.7393    0.0000 O   0  0  0  0  0  0  0  0  0  0  0  0
  1  2  1  0
  3  2  1  6
  3  4  1  0
  4  5  1  0
  5  6  2  0
  5  7  1  0
  7  8  1  1
  7  9  1  0
  9 10  1  6
 11 10  1  1
 11 12  1  0
 12 13  1  0
 13 14  1  6
 13 15  1  0
 15 16  1  0
 13 17  1  0
 17 18  1  1
 17 19  1  0
 19 20  1  6
 19 21  1  0
  9 22  1  0
 22 23  1  1
 22 24  1  0
 24 25  1  6
 26 25  1  1
 26 27  1  0
 27 28  1  0
 28 29  1  1
 28 30  1  0
 30 31  1  0
 31 32  1  1
 32 33  1  0
 32 34  1  0
 31 35  1  0
 35 36  1  6
 24 37  1  0
 37 38  1  6
 37 39  1  0
 37 40  1  0
 40 41  1  0
 41 42  1  6
 41 43  1  0
 43 44  1  0
 44 45  1  0
 44 46  1  0
 46 47  1  1
 46 48  1  0
 48 49  1  6
 48 50  1  0
 50 51  1  6
 50 52  1  0
 50  3  1  0
 21 11  1  0
 35 26  1  0
M  END
>  <ChEMBL_IDs>  (7) 
CHEMBL529

>  <target_organism>  (7) 
Rattus norvegicus

>  <target_molecule_pref_name>  (7) 
AZITHROMYCIN

>  <# Known Targets>  (7) 
10.0

>  <Known Targets>  (7) 
CHEMBL1963,CHEMBL354,CHEMBL364,CHEMBL1293235,CHEMBL347,CHEMBL612313,CHEMBL340,CHEMBL612888,CHEMBL3301413,CHEMBL612545

>  <smiles>  (7) 
CC[C@H]1OC(=O)[C@H](C)[C@@H](O[C@H]2C[C@@](C)(OC)[C@@H](O)[C@H](C)O2)[C@H](C)[C@@H](O[C@@H]2O[C@H](C)C[C@H](N(C)C)[C@H]2O)[C@](C)(O)C[C@@H](C)CN(C)[C@H](C)[C@@H](O)[C@]1(C)O

$$$$

     RDKit          2D

 52 54  0  0  0  0  0  0  0  0999 V2000
    5.6205   -1.2990    0.0000 C   0  0  0  0  0  0  0  0  0  0  0  0
    4.8705    0.0000    0.0000 C   0  0  0  0  0  0  0  0  0  0  0  0
    3.3705    0.0000    0.0000 C   0  0  0  0  0  0  0  0  0  0  0  0
    3.0367   -1.4624    0.0000 O   0  0  0  0  0  0  0  0  0  0  0  0
    2.1015   -2.6351    0.0000 C   0  0  0  0  0  0  0  0  0  0  0  0
    3.0367   -3.8079    0.0000 O   0  0  0  0  0  0  0  0  0  0  0  0
    0.7500   -3.2860    0.0000 C   0  0  0  0  0  0  0  0  0  0  0  0
    1.3600   -4.4903    0.0000 C   0  0  0  0  0  0  0  0  0  0  0  0
   -0.7500   -3.2860    0.0000 C   0  0  0  0  0  0  0  0  0  0  0  0
   -1.0838   -4.7484    0.0000 O   0  0  0  0  0  0  0  0  0  0  0  0
    0.0158   -5.7686    0.0000 C   0  0  0  0  0  0  0  0  0  0  0  0
   -0.3180   -7.2310    0.0000 C   0  0  0  0  0  0  0  0  0  0  0  0
    0.7816   -8.2513    0.0000 C   0  0  0  0  0  0  0  0  0  0  0  0
    1.4659   -9.5861    0.0000 C   0  0  0  0  0  0  0  0  0  0  0  0
   -0.4141   -9.1570    0.0000 O   0  0  0  0  0  0  0  0  0  0  0  0
   -0.2276  -10.6453    0.0000 C   0  0  0  0  0  0  0  0  0  0  0  0
    2.2150   -7.8091    0.0000 C   0  0  0  0  0  0  0  0  0  0  0  0
    3.3145   -8.8294    0.0000 O   0  0  0  0  0  0  0  0  0  0  0  0
    2.5487   -6.3467    0.0000 C   0  0  0  0  0  0  0  0  0  0  0  0
    3.9821   -5.9046    0.0000 C   0  0  0  0  0  0  0  0  0  0  0  0
    1.4492   -5.3265    0.0000 O   0  0  0  0  0  0  0  0  0  0  0  0
   -2.1015   -2.6351    0.0000 C   0  0  0  0  0  0  0  0  0  0  0  0
   -3.0367   -3.8079    0.0000 C   0  0  0  0  0  0  0  0  0  0  0  0
   -3.0367   -1.4624    0.0000 C   0  0  0  0  0  0  0  0  0  0  0  0
   -4.3881   -2.1132    0.0000 O   0  0  0  0  0  0  0  0  0  0  0  0
   -5.6275   -1.2682    0.0000 C   0  0  0  0  0  0  0  0  0  0  0  0
   -5.5154    0.2276    0.0000 O   0  0  0  0  0  0  0  0  0  0  0  0
   -6.7548    1.0725    0.0000 C   0  0  0  0  0  0  0  0  0  0  0  0
   -6.6427    2.5684    0.0000 C   0  0  0  0  0  0  0  0  0  0  0  0
   -8.1062    0.4217    0.0000 C   0  0  0  0  0  0  0  0  0  0  0  0
   -8.2183   -1.0741    0.0000 C   0  0  0  0  0  0  0  0  0  0  0  0
   -9.5698   -1.7249    0.0000 N   0  0  0  0  0  0  0  0  0  0  0  0
  -10.8091   -0.8799    0.0000 C   0  0  0  0  0  0  0  0  0  0  0  0
   -9.6819   -3.2207    0.0000 C   0  0  0  0  0  0  0  0  0  0  0  0
   -6.9790   -1.9191    0.0000 C   0  0  0  0  0  0  0  0  0  0  0  0
   -7.0910   -3.4149    0.0000 O   0  0  0  0  0  0  0  0  0  0  0  0
   -3.3705    0.0000    0.0000 C   0  0  0  0  0  0  0  0  0  0  0  0
   -4.6098   -0.8450    0.0000 C   0  0  0  0  0  0  0  0  0  0  0  0
   -4.6098    0.8450    0.0000 O   0  0  0  0  0  0  0  0  0  0  0  0
   -5.3904    0.6832    0.0000 C   0  0  0  0  0  0  0  0  0  0  0  0
   -3.0367    1.4624    0.0000 C   0  0  0  0  0  0  0  0  0  0  0  0
   -2.1015    2.6351    0.0000 C   0  0  0  0  0  0  0  0  0  0  0  0
   -3.0367    3.8079    0.0000 C   0  0  0  0  0  0  0  0  0  0  0  0
   -0.7500    3.2860    0.0000 C   0  0  0  0  0  0  0  0  0  0  0  0
   -1.0838    4.7484    0.0000 O   0  0  0  0  0  0  0  0  0  0  0  0
    0.7500    3.2860    0.0000 C   0  0  0  0  0  0  0  0  0  0  0  0
    1.0838    4.7484    0.0000 C   0  0  0  0  0  0  0  0  0  0  0  0
    2.1015    2.6351    0.0000 C   0  0  0  0  0  0  0  0  0  0  0  0
    3.0367    3.8079    0.0000 O   0  0  0  0  0  0  0  0  0  0  0  0
    3.0367    1.4624    0.0000 C   0  0  0  0  0  0  0  0  0  0  0  0
    3.7867    2.7614    0.0000 C   0  0  0  0  0  0  0  0  0  0  0  0
    4.5199    1.2388    0.0000 O   0  0  0  0  0  0  0  0  0  0  0  0
  1  2  1  0
  3  2  1  1
  3  4  1  0
  4  5  1  0
  5  6  2  0
  5  7  1  0
  7  8  1  6
  7  9  1  0
  9 10  1  1
 11 10  1  6
 11 12  1  0
 12 13  1  0
 13 14  1  1
 13 15  1  0
 15 16  1  0
 13 17  1  0
 17 18  1  6
 17 19  1  0
 19 20  1  1
 19 21  1  0
  9 22  1  0
 22 23  1  6
 22 24  1  0
 24 25  1  1
 26 25  1  1
 26 27  1  0
 27 28  1  0
 28 29  1  1
 28 30  1  0
 30 31  1  0
 31 32  1  1
 32 33  1  0
 32 34  1  0
 31 35  1  0
 35 36  1  6
 24 37  1  0
 37 38  1  1
 37 39  1  0
 39 40  1  0
 37 41  1  0
 41 42  1  0
 42 43  1  1
 42 44  1  0
 44 45  2  0
 44 46  1  0
 46 47  1  6
 46 48  1  0
 48 49  1  1
 48 50  1  0
 50 51  1  1
 50 52  1  0
 50  3  1  0
 21 11  1  0
 35 26  1  0
M  END
>  <ChEMBL_IDs>  (8) 
CHEMBL1741

>  <target_organism>  (8) 
Homo sapiens,None,Escherichia coli K-12

>  <target_molecule_pref_name>  (8) 
CLARITHROMYCIN

>  <# Known Targets>  (8) 
10.0

>  <Known Targets>  (8) 
CHEMBL240,CHEMBL354,CHEMBL347,CHEMBL4302,CHEMBL340,CHEMBL612888,CHEMBL1743121,CHEMBL4040,CHEMBL1697668,CHEMBL612545

>  <smiles>  (8) 
CC[C@H]1OC(=O)[C@H](C)[C@@H](O[C@H]2C[C@@](C)(OC)[C@@H](O)[C@H](C)O2)[C@H](C)[C@@H](O[C@@H]2O[C@H](C)C[C@H](N(C)C)[C@H]2O)[C@](C)(OC)C[C@@H](C)C(=O)[C@H](C)[C@@H](O)[C@]1(C)O

$$$$

     RDKit          2D

 52 54  0  0  0  0  0  0  0  0999 V2000
    5.8573   -1.2990    0.0000 C   0  0  0  0  0  0  0  0  0  0  0  0
    5.1073    0.0000    0.0000 C   0  0  0  0  0  0  0  0  0  0  0  0
    3.6073    0.0000    0.0000 C   0  0  0  0  0  0  0  0  0  0  0  0
    3.2954    1.4672    0.0000 O   0  0  0  0  0  0  0  0  0  0  0  0
    2.4138    2.6807    0.0000 C   0  0  0  0  0  0  0  0  0  0  0  0
    3.4175    3.7955    0.0000 O   0  0  0  0  0  0  0  0  0  0  0  0
    1.1147    3.4307    0.0000 C   0  0  0  0  0  0  0  0  0  0  0  0
    1.8302    4.5756    0.0000 C   0  0  0  0  0  0  0  0  0  0  0  0
   -0.3771    3.5875    0.0000 C   0  0  0  0  0  0  0  0  0  0  0  0
   -0.5339    5.0793    0.0000 O   0  0  0  0  0  0  0  0  0  0  0  0
    0.6797    5.9610    0.0000 C   0  0  0  0  0  0  0  0  0  0  0  0
    0.5229    7.4528    0.0000 C   0  0  0  0  0  0  0  0  0  0  0  0
    1.7364    8.3345    0.0000 C   0  0  0  0  0  0  0  0  0  0  0  0
    2.5752    9.5780    0.0000 C   0  0  0  0  0  0  0  0  0  0  0  0
    0.6574    9.3764    0.0000 O   0  0  0  0  0  0  0  0  0  0  0  0
    1.0203   10.8319    0.0000 C   0  0  0  0  0  0  0  0  0  0  0  0
    3.1067    7.7244    0.0000 C   0  0  0  0  0  0  0  0  0  0  0  0
    4.3202    8.6060    0.0000 O   0  0  0  0  0  0  0  0  0  0  0  0
    3.2635    6.2326    0.0000 C   0  0  0  0  0  0  0  0  0  0  0  0
    4.6338    5.6225    0.0000 C   0  0  0  0  0  0  0  0  0  0  0  0
    2.0500    5.3509    0.0000 O   0  0  0  0  0  0  0  0  0  0  0  0
   -1.8037    3.1240    0.0000 C   0  0  0  0  0  0  0  0  0  0  0  0
   -2.5537    4.4231    0.0000 C   0  0  0  0  0  0  0  0  0  0  0  0
   -2.9184    2.1203    0.0000 C   0  0  0  0  0  0  0  0  0  0  0  0
   -4.1319    3.0020    0.0000 O   0  0  0  0  0  0  0  0  0  0  0  0
   -5.5022    2.3919    0.0000 C   0  0  0  0  0  0  0  0  0  0  0  0
   -6.7157    3.2736    0.0000 O   0  0  0  0  0  0  0  0  0  0  0  0
   -8.0861    2.6635    0.0000 C   0  0  0  0  0  0  0  0  0  0  0  0
   -9.2996    3.5451    0.0000 C   0  0  0  0  0  0  0  0  0  0  0  0
   -8.2428    1.1717    0.0000 C   0  0  0  0  0  0  0  0  0  0  0  0
   -7.0293    0.2900    0.0000 C   0  0  0  0  0  0  0  0  0  0  0  0
   -7.1861   -1.2018    0.0000 N   0  0  0  0  0  0  0  0  0  0  0  0
   -8.5564   -1.8119    0.0000 C   0  0  0  0  0  0  0  0  0  0  0  0
   -5.9726   -2.0835    0.0000 C   0  0  0  0  0  0  0  0  0  0  0  0
   -5.6590    0.9001    0.0000 C   0  0  0  0  0  0  0  0  0  0  0  0
   -5.0760    0.3564    0.0000 O   0  0  0  0  0  0  0  0  0  0  0  0
   -3.5285    0.7500    0.0000 C   0  0  0  0  0  0  0  0  0  0  0  0
   -4.2257    0.3635    0.0000 C   0  0  0  0  0  0  0  0  0  0  0  0
   -4.5705    1.8290    0.0000 O   0  0  0  0  0  0  0  0  0  0  0  0
   -3.5285   -0.7500    0.0000 C   0  0  0  0  0  0  0  0  0  0  0  0
   -2.9184   -2.1203    0.0000 C   0  0  0  0  0  0  0  0  0  0  0  0
   -4.1319   -3.0020    0.0000 C   0  0  0  0  0  0  0  0  0  0  0  0
   -1.8037   -3.1240    0.0000 C   0  0  0  0  0  0  0  0  0  0  0  0
   -0.3771   -3.5875    0.0000 N   0  0  0  0  0  0  0  0  0  0  0  0
   -0.5339   -5.0793    0.0000 C   0  0  0  0  0  0  0  0  0  0  0  0
    1.1147   -3.4307    0.0000 C   0  0  0  0  0  0  0  0  0  0  0  0
    1.5782   -4.8573    0.0000 C   0  0  0  0  0  0  0  0  0  0  0  0
    2.4138   -2.6807    0.0000 C   0  0  0  0  0  0  0  0  0  0  0  0
    3.4175   -3.7955    0.0000 O   0  0  0  0  0  0  0  0  0  0  0  0
    3.2954   -1.4672    0.0000 C   0  0  0  0  0  0  0  0  0  0  0  0
    4.7726   -1.2067    0.0000 C   0  0  0  0  0  0  0  0  0  0  0  0
    4.0903   -2.7393    0.0000 O   0  0  0  0  0  0  0  0  0  0  0  0
  1  2  1  0
  3  2  1  6
  3  4  1  0
  4  5  1  0
  5  6  2  0
  5  7  1  0
  7  8  1  1
  7  9  1  0
  9 10  1  6
 11 10  1  1
 11 12  1  0
 12 13  1  0
 13 14  1  6
 13 15  1  0
 15 16  1  0
 13 17  1  0
 17 18  1  1
 17 19  1  0
 19 20  1  6
 19 21  1  0
  9 22  1  0
 22 23  1  1
 22 24  1  0
 24 25  1  6
 26 25  1  1
 26 27  1  0
 27 28  1  0
 28 29  1  1
 28 30  1  0
 30 31  1  0
 31 32  1  1
 32 33  1  0
 32 34  1  0
 31 35  1  0
 35 36  1  6
 24 37  1  0
 37 38  1  6
 37 39  1  0
 37 40  1  0
 40 41  1  0
 41 42  1  6
 41 43  1  0
 43 44  1  0
 44 45  1  0
 44 46  1  0
 46 47  1  1
 46 48  1  0
 48 49  1  6
 48 50  1  0
 50 51  1  6
 50 52  1  0
 50  3  1  0
 21 11  1  0
 35 26  1  0
M  END
>  <ChEMBL_IDs>  (9) 
CHEMBL529

>  <target_organism>  (9) 
Rattus norvegicus

>  <target_molecule_pref_name>  (9) 
AZITHROMYCIN

>  <# Known Targets>  (9) 
10.0

>  <Known Targets>  (9) 
CHEMBL1963,CHEMBL354,CHEMBL364,CHEMBL1293235,CHEMBL347,CHEMBL612313,CHEMBL340,CHEMBL612888,CHEMBL3301413,CHEMBL612545

>  <smiles>  (9) 
CC[C@H]1OC(=O)[C@H](C)[C@@H](O[C@H]2C[C@@](C)(OC)[C@@H](O)[C@H](C)O2)[C@H](C)[C@@H](O[C@@H]2O[C@H](C)C[C@H](N(C)C)[C@H]2O)[C@](C)(O)C[C@@H](C)CN(C)[C@H](C)[C@@H](O)[C@]1(C)O

$$$$

     RDKit          2D

 60 62  0  0  0  0  0  0  0  0999 V2000
   -7.1024   -5.2306    0.0000 C   0  0  0  0  0  0  0  0  0  0  0  0
   -5.8630   -4.3856    0.0000 C   0  0  0  0  0  0  0  0  0  0  0  0
   -4.5116   -5.0365    0.0000 O   0  0  0  0  0  0  0  0  0  0  0  0
   -3.2722   -4.1915    0.0000 C   0  0  0  0  0  0  0  0  0  0  0  0
   -3.3318   -3.3966    0.0000 O   0  0  0  0  0  0  0  0  0  0  0  0
   -1.9207   -4.8423    0.0000 C   0  0  0  0  0  0  0  0  0  0  0  0
   -0.6814   -3.9973    0.0000 C   0  0  0  0  0  0  0  0  0  0  0  0
    0.6701   -4.6482    0.0000 C   0  0  0  0  0  0  0  0  0  0  0  0
    0.5990   -6.1465    0.0000 O   0  0  0  0  0  0  0  0  0  0  0  0
    1.9094   -3.8032    0.0000 O   0  0  0  0  0  0  0  0  0  0  0  0
    3.2609   -4.4540    0.0000 C   0  0  0  0  0  0  0  0  0  0  0  0
    4.5002   -3.6090    0.0000 C   0  0  0  0  0  0  0  0  0  0  0  0
    4.3881   -2.1132    0.0000 O   0  0  0  0  0  0  0  0  0  0  0  0
    3.0367   -1.4624    0.0000 C   0  0  0  0  0  0  0  0  0  0  0  0
    3.3705    0.0000    0.0000 C   0  0  0  0  0  0  0  0  0  0  0  0
    4.8705    0.0000    0.0000 C   0  0  0  0  0  0  0  0  0  0  0  0
    3.0367    1.4624    0.0000 C   0  0  0  0  0  0  0  0  0  0  0  0
    4.3881    2.1132    0.0000 O   0  0  0  0  0  0  0  0  0  0  0  0
    4.5002    3.6090    0.0000 C   0  0  0  0  0  0  0  0  0  0  0  0
    5.8517    4.2598    0.0000 C   0  0  0  0  0  0  0  0  0  0  0  0
    5.9638    5.7557    0.0000 C   0  0  0  0  0  0  0  0  0  0  0  0
    6.5807    7.1229    0.0000 C   0  0  0  0  0  0  0  0  0  0  0  0
    7.4174    5.3855    0.0000 O   0  0  0  0  0  0  0  0  0  0  0  0
    8.4648    6.4593    0.0000 C   0  0  0  0  0  0  0  0  0  0  0  0
    4.7244    6.6006    0.0000 C   0  0  0  0  0  0  0  0  0  0  0  0
    4.8365    8.0964    0.0000 O   0  0  0  0  0  0  0  0  0  0  0  0
    3.3730    5.9498    0.0000 C   0  0  0  0  0  0  0  0  0  0  0  0
    2.1336    6.7948    0.0000 C   0  0  0  0  0  0  0  0  0  0  0  0
    3.2609    4.4540    0.0000 O   0  0  0  0  0  0  0  0  0  0  0  0
    2.1015    2.6351    0.0000 C   0  0  0  0  0  0  0  0  0  0  0  0
    2.6628    3.8629    0.0000 C   0  0  0  0  0  0  0  0  0  0  0  0
    0.7500    3.2860    0.0000 C   0  0  0  0  0  0  0  0  0  0  0  0
    1.0838    4.7484    0.0000 O   0  0  0  0  0  0  0  0  0  0  0  0
   -0.7500    3.2860    0.0000 O   0  0  0  0  0  0  0  0  0  0  0  0
   -2.1015    2.6351    0.0000 C   0  0  0  0  0  0  0  0  0  0  0  0
   -3.0367    3.8079    0.0000 C   0  0  0  0  0  0  0  0  0  0  0  0
   -2.4887    5.2042    0.0000 C   0  0  0  0  0  0  0  0  0  0  0  0
   -3.0367    1.4624    0.0000 C   0  0  0  0  0  0  0  0  0  0  0  0
   -4.5199    1.2388    0.0000 C   0  0  0  0  0  0  0  0  0  0  0  0
   -3.7867    2.7614    0.0000 O   0  0  0  0  0  0  0  0  0  0  0  0
   -3.3705    0.0000    0.0000 C   0  0  0  0  0  0  0  0  0  0  0  0
   -4.8705    0.0000    0.0000 O   0  0  0  0  0  0  0  0  0  0  0  0
   -3.0367   -1.4624    0.0000 C   0  0  0  0  0  0  0  0  0  0  0  0
   -4.3881   -2.1132    0.0000 C   0  0  0  0  0  0  0  0  0  0  0  0
   -2.1015   -2.6351    0.0000 C   0  0  0  0  0  0  0  0  0  0  0  0
   -2.7345   -3.1196    0.0000 O   0  0  0  0  0  0  0  0  0  0  0  0
   -0.7500   -3.2860    0.0000 C   0  0  0  0  0  0  0  0  0  0  0  0
   -1.0838   -4.7484    0.0000 C   0  0  0  0  0  0  0  0  0  0  0  0
    0.7500   -3.2860    0.0000 C   0  0  0  0  0  0  0  0  0  0  0  0
    2.1015   -2.6351    0.0000 C   0  0  0  0  0  0  0  0  0  0  0  0
    3.5348   -3.0773    0.0000 C   0  0  0  0  0  0  0  0  0  0  0  0
    1.8483   -4.1136    0.0000 O   0  0  0  0  0  0  0  0  0  0  0  0
    5.8517   -4.2598    0.0000 O   0  0  0  0  0  0  0  0  0  0  0  0
    5.9638   -5.7557    0.0000 C   0  0  0  0  0  0  0  0  0  0  0  0
    7.3152   -6.4065    0.0000 C   0  0  0  0  0  0  0  0  0  0  0  0
    4.7244   -6.6006    0.0000 C   0  0  0  0  0  0  0  0  0  0  0  0
    3.3730   -5.9498    0.0000 C   0  0  0  0  0  0  0  0  0  0  0  0
    2.1336   -6.7948    0.0000 N   0  0  0  0  0  0  0  0  0  0  0  0
    2.2457   -8.2906    0.0000 C   0  0  0  0  0  0  0  0  0  0  0  0
    0.7129   -6.3136    0.0000 C   0  0  0  0  0  0  0  0  0  0  0  0
  1  2  1  0
  2  3  1  0
  3  4  1  0
  4  5  2  0
  4  6  1  0
  6  7  1  0
  7  8  1  0
  8  9  2  0
  8 10  1  0
 11 10  1  1
 11 12  1  0
 12 13  1  6
 14 13  1  1
 14 15  1  0
 15 16  1  6
 15 17  1  0
 17 18  1  1
 19 18  1  6
 19 20  1  0
 20 21  1  0
 21 22  1  1
 21 23  1  0
 23 24  1  0
 21 25  1  0
 25 26  1  6
 25 27  1  0
 27 28  1  1
 27 29  1  0
 17 30  1  0
 30 31  1  6
 30 32  1  0
 32 33  2  0
 32 34  1  0
 34 35  1  0
 35 36  1  1
 36 37  1  0
 35 38  1  0
 38 39  1  1
 38 40  1  0
 38 41  1  0
 41 42  1  1
 41 43  1  0
 43 44  1  6
 43 45  1  0
 45 46  2  0
 45 47  1  0
 47 48  1  1
 47 49  1  0
 49 50  1  0
 50 51  1  1
 50 52  1  0
 12 53  1  0
 53 54  1  0
 54 55  1  6
 54 56  1  0
 56 57  1  0
 57 58  1  6
 58 59  1  0
 58 60  1  0
 57 11  1  0
 50 14  1  0
 29 19  1  0
M  END
>  <ChEMBL_IDs>  (10) 
CHEMBL1200688

>  <target_organism>  (10) 
nan

>  <target_molecule_pref_name>  (10) 
ERYTHROMYCIN ETHYLSUCCINATE

>  <# Known Targets>  (10) 
5.0

>  <Known Targets>  (10) 
CHEMBL1697668,CHEMBL2362975,CHEMBL1743121,CHEMBL2026,CHEMBL612545

>  <smiles>  (10) 
CCOC(=O)CCC(=O)O[C@H]1[C@H](O[C@@H]2[C@@H](C)[C@H](O[C@H]3C[C@@](C)(OC)[C@@H](O)[C@H](C)O3)[C@@H](C)C(=O)O[C@H](CC)[C@@](C)(O)[C@H](O)[C@@H](C)C(=O)[C@H](C)C[C@@]2(C)O)O[C@H](C)C[C@@H]1N(C)C

$$$$

     RDKit          2D

 51 53  0  0  0  0  0  0  0  0999 V2000
    5.6205   -1.2990    0.0000 C   0  0  0  0  0  0  0  0  0  0  0  0
    4.8705    0.0000    0.0000 C   0  0  0  0  0  0  0  0  0  0  0  0
    3.3705    0.0000    0.0000 C   0  0  0  0  0  0  0  0  0  0  0  0
    3.0367   -1.4624    0.0000 O   0  0  0  0  0  0  0  0  0  0  0  0
    2.1015   -2.6351    0.0000 C   0  0  0  0  0  0  0  0  0  0  0  0
    3.0367   -3.8079    0.0000 O   0  0  0  0  0  0  0  0  0  0  0  0
    0.7500   -3.2860    0.0000 C   0  0  0  0  0  0  0  0  0  0  0  0
    1.3600   -4.4903    0.0000 C   0  0  0  0  0  0  0  0  0  0  0  0
   -0.7500   -3.2860    0.0000 C   0  0  0  0  0  0  0  0  0  0  0  0
   -1.0838   -4.7484    0.0000 O   0  0  0  0  0  0  0  0  0  0  0  0
    0.0158   -5.7686    0.0000 C   0  0  0  0  0  0  0  0  0  0  0  0
   -0.3180   -7.2310    0.0000 C   0  0  0  0  0  0  0  0  0  0  0  0
    0.7816   -8.2513    0.0000 C   0  0  0  0  0  0  0  0  0  0  0  0
    1.4659   -9.5861    0.0000 C   0  0  0  0  0  0  0  0  0  0  0  0
   -0.4141   -9.1570    0.0000 O   0  0  0  0  0  0  0  0  0  0  0  0
   -0.2276  -10.6453    0.0000 C   0  0  0  0  0  0  0  0  0  0  0  0
    2.2150   -7.8091    0.0000 C   0  0  0  0  0  0  0  0  0  0  0  0
    3.3145   -8.8294    0.0000 O   0  0  0  0  0  0  0  0  0  0  0  0
    2.5487   -6.3467    0.0000 C   0  0  0  0  0  0  0  0  0  0  0  0
    3.9821   -5.9046    0.0000 C   0  0  0  0  0  0  0  0  0  0  0  0
    1.4492   -5.3265    0.0000 O   0  0  0  0  0  0  0  0  0  0  0  0
   -2.1015   -2.6351    0.0000 C   0  0  0  0  0  0  0  0  0  0  0  0
   -3.0367   -3.8079    0.0000 C   0  0  0  0  0  0  0  0  0  0  0  0
   -3.0367   -1.4624    0.0000 C   0  0  0  0  0  0  0  0  0  0  0  0
   -4.3881   -2.1132    0.0000 O   0  0  0  0  0  0  0  0  0  0  0  0
   -5.6275   -1.2682    0.0000 C   0  0  0  0  0  0  0  0  0  0  0  0
   -5.5154    0.2276    0.0000 O   0  0  0  0  0  0  0  0  0  0  0  0
   -6.7548    1.0725    0.0000 C   0  0  0  0  0  0  0  0  0  0  0  0
   -6.6427    2.5684    0.0000 C   0  0  0  0  0  0  0  0  0  0  0  0
   -8.1062    0.4217    0.0000 C   0  0  0  0  0  0  0  0  0  0  0  0
   -8.2183   -1.0741    0.0000 C   0  0  0  0  0  0  0  0  0  0  0  0
   -9.5698   -1.7249    0.0000 N   0  0  0  0  0  0  0  0  0  0  0  0
  -10.8091   -0.8799    0.0000 C   0  0  0  0  0  0  0  0  0  0  0  0
   -9.6819   -3.2207    0.0000 C   0  0  0  0  0  0  0  0  0  0  0  0
   -6.9790   -1.9191    0.0000 C   0  0  0  0  0  0  0  0  0  0  0  0
   -7.0910   -3.4149    0.0000 O   0  0  0  0  0  0  0  0  0  0  0  0
   -3.3705    0.0000    0.0000 C   0  0  0  0  0  0  0  0  0  0  0  0
   -4.6098   -0.8450    0.0000 C   0  0  0  0  0  0  0  0  0  0  0  0
   -4.6098    0.8450    0.0000 O   0  0  0  0  0  0  0  0  0  0  0  0
   -3.0367    1.4624    0.0000 C   0  0  0  0  0  0  0  0  0  0  0  0
   -2.1015    2.6351    0.0000 C   0  0  0  0  0  0  0  0  0  0  0  0
   -3.0367    3.8079    0.0000 C   0  0  0  0  0  0  0  0  0  0  0  0
   -0.7500    3.2860    0.0000 C   0  0  0  0  0  0  0  0  0  0  0  0
   -1.0838    4.7484    0.0000 O   0  0  0  0  0  0  0  0  0  0  0  0
    0.7500    3.2860    0.0000 C   0  0  0  0  0  0  0  0  0  0  0  0
    1.0838    4.7484    0.0000 C   0  0  0  0  0  0  0  0  0  0  0  0
    2.1015    2.6351    0.0000 C   0  0  0  0  0  0  0  0  0  0  0  0
    3.0367    3.8079    0.0000 O   0  0  0  0  0  0  0  0  0  0  0  0
    3.0367    1.4624    0.0000 C   0  0  0  0  0  0  0  0  0  0  0  0
    3.7867    2.7614    0.0000 C   0  0  0  0  0  0  0  0  0  0  0  0
    4.5199    1.2388    0.0000 O   0  0  0  0  0  0  0  0  0  0  0  0
  1  2  1  0
  2  3  1  0
  3  4  1  0
  4  5  1  0
  5  6  2  0
  5  7  1  0
  7  8  1  0
  7  9  1  0
  9 10  1  1
 11 10  1  6
 11 12  1  0
 12 13  1  0
 13 14  1  1
 13 15  1  0
 15 16  1  0
 13 17  1  0
 17 18  1  0
 17 19  1  0
 19 20  1  0
 19 21  1  0
  9 22  1  0
 22 23  1  0
 22 24  1  0
 24 25  1  1
 26 25  1  1
 26 27  1  0
 27 28  1  0
 28 29  1  0
 28 30  1  0
 30 31  1  0
 31 32  1  0
 32 33  1  0
 32 34  1  0
 31 35  1  0
 35 36  1  0
 24 37  1  0
 37 38  1  6
 37 39  1  0
 37 40  1  0
 40 41  1  0
 41 42  1  0
 41 43  1  0
 43 44  2  0
 43 45  1  0
 45 46  1  1
 45 47  1  0
 47 48  1  0
 47 49  1  0
 49 50  1  1
 49 51  1  0
 49  3  1  0
 21 11  1  0
 35 26  1  0
M  END
>  <ChEMBL_IDs>  (11) 
CHEMBL1315430

>  <target_organism>  (11) 
nan

>  <target_molecule_pref_name>  (11) 
None

>  <# Known Targets>  (11) 
4.0

>  <Known Targets>  (11) 
CHEMBL1293231,CHEMBL1075138,CHEMBL340,CHEMBL1293235

>  <smiles>  (11) 
CCC1OC(=O)C(C)[C@@H](O[C@H]2C[C@@](C)(OC)C(O)C(C)O2)C(C)[C@@H](O[C@@H]2OC(C)CC(N(C)C)C2O)[C@@](C)(O)CC(C)C(=O)[C@@H](C)C(O)[C@]1(C)O

$$$$

     RDKit          2D

 51 53  0  0  0  0  0  0  0  0999 V2000
    5.6205   -1.2990    0.0000 C   0  0  0  0  0  0  0  0  0  0  0  0
    4.8705    0.0000    0.0000 C   0  0  0  0  0  0  0  0  0  0  0  0
    3.3705    0.0000    0.0000 C   0  0  0  0  0  0  0  0  0  0  0  0
    3.0367   -1.4624    0.0000 O   0  0  0  0  0  0  0  0  0  0  0  0
    2.1015   -2.6351    0.0000 C   0  0  0  0  0  0  0  0  0  0  0  0
    3.0367   -3.8079    0.0000 O   0  0  0  0  0  0  0  0  0  0  0  0
    0.7500   -3.2860    0.0000 C   0  0  0  0  0  0  0  0  0  0  0  0
    1.3600   -4.4903    0.0000 C   0  0  0  0  0  0  0  0  0  0  0  0
   -0.7500   -3.2860    0.0000 C   0  0  0  0  0  0  0  0  0  0  0  0
   -1.0838   -4.7484    0.0000 O   0  0  0  0  0  0  0  0  0  0  0  0
    0.0158   -5.7686    0.0000 C   0  0  0  0  0  0  0  0  0  0  0  0
   -0.3180   -7.2310    0.0000 C   0  0  0  0  0  0  0  0  0  0  0  0
    0.7816   -8.2513    0.0000 C   0  0  0  0  0  0  0  0  0  0  0  0
    1.4659   -9.5861    0.0000 C   0  0  0  0  0  0  0  0  0  0  0  0
   -0.4141   -9.1570    0.0000 O   0  0  0  0  0  0  0  0  0  0  0  0
   -0.2276  -10.6453    0.0000 C   0  0  0  0  0  0  0  0  0  0  0  0
    2.2150   -7.8091    0.0000 C   0  0  0  0  0  0  0  0  0  0  0  0
    3.3145   -8.8294    0.0000 O   0  0  0  0  0  0  0  0  0  0  0  0
    2.5487   -6.3467    0.0000 C   0  0  0  0  0  0  0  0  0  0  0  0
    3.9821   -5.9046    0.0000 C   0  0  0  0  0  0  0  0  0  0  0  0
    1.4492   -5.3265    0.0000 O   0  0  0  0  0  0  0  0  0  0  0  0
   -2.1015   -2.6351    0.0000 C   0  0  0  0  0  0  0  0  0  0  0  0
   -3.0367   -3.8079    0.0000 C   0  0  0  0  0  0  0  0  0  0  0  0
   -3.0367   -1.4624    0.0000 C   0  0  0  0  0  0  0  0  0  0  0  0
   -4.3881   -2.1132    0.0000 O   0  0  0  0  0  0  0  0  0  0  0  0
   -5.6275   -1.2682    0.0000 C   0  0  0  0  0  0  0  0  0  0  0  0
   -5.5154    0.2276    0.0000 O   0  0  0  0  0  0  0  0  0  0  0  0
   -6.7548    1.0725    0.0000 C   0  0  0  0  0  0  0  0  0  0  0  0
   -6.6427    2.5684    0.0000 C   0  0  0  0  0  0  0  0  0  0  0  0
   -8.1062    0.4217    0.0000 C   0  0  0  0  0  0  0  0  0  0  0  0
   -8.2183   -1.0741    0.0000 C   0  0  0  0  0  0  0  0  0  0  0  0
   -9.5698   -1.7249    0.0000 N   0  0  0  0  0  0  0  0  0  0  0  0
  -10.8091   -0.8799    0.0000 C   0  0  0  0  0  0  0  0  0  0  0  0
   -9.6819   -3.2207    0.0000 C   0  0  0  0  0  0  0  0  0  0  0  0
   -6.9790   -1.9191    0.0000 C   0  0  0  0  0  0  0  0  0  0  0  0
   -7.0910   -3.4149    0.0000 O   0  0  0  0  0  0  0  0  0  0  0  0
   -3.3705    0.0000    0.0000 C   0  0  0  0  0  0  0  0  0  0  0  0
   -4.6098   -0.8450    0.0000 C   0  0  0  0  0  0  0  0  0  0  0  0
   -4.6098    0.8450    0.0000 O   0  0  0  0  0  0  0  0  0  0  0  0
   -3.0367    1.4624    0.0000 C   0  0  0  0  0  0  0  0  0  0  0  0
   -2.1015    2.6351    0.0000 C   0  0  0  0  0  0  0  0  0  0  0  0
   -3.0367    3.8079    0.0000 C   0  0  0  0  0  0  0  0  0  0  0  0
   -0.7500    3.2860    0.0000 C   0  0  0  0  0  0  0  0  0  0  0  0
   -1.0838    4.7484    0.0000 O   0  0  0  0  0  0  0  0  0  0  0  0
    0.7500    3.2860    0.0000 C   0  0  0  0  0  0  0  0  0  0  0  0
    1.0838    4.7484    0.0000 C   0  0  0  0  0  0  0  0  0  0  0  0
    2.1015    2.6351    0.0000 C   0  0  0  0  0  0  0  0  0  0  0  0
    3.0367    3.8079    0.0000 O   0  0  0  0  0  0  0  0  0  0  0  0
    3.0367    1.4624    0.0000 C   0  0  0  0  0  0  0  0  0  0  0  0
    3.7867    2.7614    0.0000 C   0  0  0  0  0  0  0  0  0  0  0  0
    4.5199    1.2388    0.0000 O   0  0  0  0  0  0  0  0  0  0  0  0
  1  2  1  0
  3  2  1  6
  3  4  1  0
  4  5  1  0
  5  6  2  0
  5  7  1  0
  7  8  1  6
  7  9  1  0
  9 10  1  6
 11 10  1  1
 11 12  1  0
 12 13  1  0
 13 14  1  6
 13 15  1  0
 15 16  1  0
 13 17  1  0
 17 18  1  1
 17 19  1  0
 19 20  1  1
 19 21  1  0
  9 22  1  0
 22 23  1  6
 22 24  1  0
 24 25  1  6
 26 25  1  1
 26 27  1  0
 27 28  1  0
 28 29  1  6
 28 30  1  0
 30 31  1  0
 31 32  1  6
 32 33  1  0
 32 34  1  0
 31 35  1  0
 35 36  1  1
 24 37  1  0
 37 38  1  1
 37 39  1  0
 37 40  1  0
 40 41  1  0
 41 42  1  6
 41 43  1  0
 43 44  2  0
 43 45  1  0
 45 46  1  6
 45 47  1  0
 47 48  1  6
 47 49  1  0
 49 50  1  1
 49 51  1  0
 49  3  1  0
 21 11  1  0
 35 26  1  0
M  END
>  <ChEMBL_IDs>  (12) 
CHEMBL1328576

>  <target_organism>  (12) 
nan

>  <target_molecule_pref_name>  (12) 
None

>  <# Known Targets>  (12) 
3.0

>  <Known Targets>  (12) 
CHEMBL1963,CHEMBL4372,CHEMBL340

>  <smiles>  (12) 
CC[C@@H]1OC(=O)[C@H](C)[C@H](O[C@@H]2C[C@](C)(OC)[C@H](O)[C@H](C)O2)[C@H](C)[C@H](O[C@@H]2O[C@@H](C)C[C@@H](N(C)C)[C@@H]2O)[C@](C)(O)C[C@H](C)C(=O)[C@H](C)[C@H](O)[C@]1(C)O

$$$$

     RDKit          2D

 53 55  0  0  0  0  0  0  0  0999 V2000
    5.6205   -1.2990    0.0000 C   0  0  0  0  0  0  0  0  0  0  0  0
    4.8705    0.0000    0.0000 C   0  0  0  0  0  0  0  0  0  0  0  0
    3.3705    0.0000    0.0000 C   0  0  0  0  0  0  0  0  0  0  0  0
    3.0367   -1.4624    0.0000 O   0  0  0  0  0  0  0  0  0  0  0  0
    2.1015   -2.6351    0.0000 C   0  0  0  0  0  0  0  0  0  0  0  0
    3.0367   -3.8079    0.0000 O   0  0  0  0  0  0  0  0  0  0  0  0
    0.7500   -3.2860    0.0000 C   0  0  0  0  0  0  0  0  0  0  0  0
    1.3600   -4.4903    0.0000 C   0  0  0  0  0  0  0  0  0  0  0  0
   -0.7500   -3.2860    0.0000 C   0  0  0  0  0  0  0  0  0  0  0  0
   -1.0838   -4.7484    0.0000 O   0  0  0  0  0  0  0  0  0  0  0  0
    0.0158   -5.7686    0.0000 C   0  0  0  0  0  0  0  0  0  0  0  0
   -0.3180   -7.2310    0.0000 C   0  0  0  0  0  0  0  0  0  0  0  0
    0.7816   -8.2513    0.0000 C   0  0  0  0  0  0  0  0  0  0  0  0
    1.4659   -9.5861    0.0000 C   0  0  0  0  0  0  0  0  0  0  0  0
   -0.4141   -9.1570    0.0000 O   0  0  0  0  0  0  0  0  0  0  0  0
   -0.2276  -10.6453    0.0000 C   0  0  0  0  0  0  0  0  0  0  0  0
    2.2150   -7.8091    0.0000 C   0  0  0  0  0  0  0  0  0  0  0  0
    3.3145   -8.8294    0.0000 O   0  0  0  0  0  0  0  0  0  0  0  0
    2.5487   -6.3467    0.0000 C   0  0  0  0  0  0  0  0  0  0  0  0
    3.9821   -5.9046    0.0000 C   0  0  0  0  0  0  0  0  0  0  0  0
    1.4492   -5.3265    0.0000 O   0  0  0  0  0  0  0  0  0  0  0  0
   -2.1015   -2.6351    0.0000 C   0  0  0  0  0  0  0  0  0  0  0  0
   -3.0367   -3.8079    0.0000 C   0  0  0  0  0  0  0  0  0  0  0  0
   -3.0367   -1.4624    0.0000 C   0  0  0  0  0  0  0  0  0  0  0  0
   -4.3881   -2.1132    0.0000 O   0  0  0  0  0  0  0  0  0  0  0  0
   -5.6275   -1.2682    0.0000 C   0  0  0  0  0  0  0  0  0  0  0  0
   -5.5154    0.2276    0.0000 O   0  0  0  0  0  0  0  0  0  0  0  0
   -6.7548    1.0725    0.0000 C   0  0  0  0  0  0  0  0  0  0  0  0
   -6.6427    2.5684    0.0000 C   0  0  0  0  0  0  0  0  0  0  0  0
   -8.1062    0.4217    0.0000 C   0  0  0  0  0  0  0  0  0  0  0  0
   -8.2183   -1.0741    0.0000 C   0  0  0  0  0  0  0  0  0  0  0  0
   -9.5698   -1.7249    0.0000 N   0  0  0  0  0  0  0  0  0  0  0  0
  -10.8091   -0.8799    0.0000 C   0  0  0  0  0  0  0  0  0  0  0  0
   -9.6819   -3.2207    0.0000 C   0  0  0  0  0  0  0  0  0  0  0  0
  -11.0333   -3.8715    0.0000 C   0  0  0  0  0  0  0  0  0  0  0  0
   -8.4425   -4.0657    0.0000 C   0  0  0  0  0  0  0  0  0  0  0  0
   -6.9790   -1.9191    0.0000 C   0  0  0  0  0  0  0  0  0  0  0  0
   -7.0910   -3.4149    0.0000 O   0  0  0  0  0  0  0  0  0  0  0  0
   -3.3705    0.0000    0.0000 C   0  0  0  0  0  0  0  0  0  0  0  0
   -4.6098   -0.8450    0.0000 C   0  0  0  0  0  0  0  0  0  0  0  0
   -4.6098    0.8450    0.0000 O   0  0  0  0  0  0  0  0  0  0  0  0
   -3.0367    1.4624    0.0000 C   0  0  0  0  0  0  0  0  0  0  0  0
   -2.1015    2.6351    0.0000 C   0  0  0  0  0  0  0  0  0  0  0  0
   -3.0367    3.8079    0.0000 C   0  0  0  0  0  0  0  0  0  0  0  0
   -0.7500    3.2860    0.0000 C   0  0  0  0  0  0  0  0  0  0  0  0
   -1.0838    4.7484    0.0000 O   0  0  0  0  0  0  0  0  0  0  0  0
    0.7500    3.2860    0.0000 C   0  0  0  0  0  0  0  0  0  0  0  0
    1.0838    4.7484    0.0000 C   0  0  0  0  0  0  0  0  0  0  0  0
    2.1015    2.6351    0.0000 C   0  0  0  0  0  0  0  0  0  0  0  0
    3.0367    3.8079    0.0000 O   0  0  0  0  0  0  0  0  0  0  0  0
    3.0367    1.4624    0.0000 C   0  0  0  0  0  0  0  0  0  0  0  0
    3.7867    2.7614    0.0000 C   0  0  0  0  0  0  0  0  0  0  0  0
    4.5199    1.2388    0.0000 O   0  0  0  0  0  0  0  0  0  0  0  0
  1  2  1  0
  3  2  1  1
  3  4  1  0
  4  5  1  0
  5  6  2  0
  5  7  1  0
  7  8  1  6
  7  9  1  0
  9 10  1  1
 11 10  1  6
 11 12  1  0
 12 13  1  0
 13 14  1  1
 13 15  1  0
 15 16  1  0
 13 17  1  0
 17 18  1  6
 17 19  1  0
 19 20  1  1
 19 21  1  0
  9 22  1  0
 22 23  1  6
 22 24  1  0
 24 25  1  1
 26 25  1  1
 26 27  1  0
 27 28  1  0
 28 29  1  1
 28 30  1  0
 30 31  1  0
 31 32  1  1
 32 33  1  0
 32 34  1  0
 34 35  1  0
 34 36  1  0
 31 37  1  0
 37 38  1  6
 24 39  1  0
 39 40  1  1
 39 41  1  0
 39 42  1  0
 42 43  1  0
 43 44  1  1
 43 45  1  0
 45 46  1  6
 45 47  1  0
 47 48  1  6
 47 49  1  0
 49 50  1  1
 49 51  1  0
 51 52  1  1
 51 53  1  0
 51  3  1  0
 21 11  1  0
 37 26  1  0
M  END
>  <ChEMBL_IDs>  (13) 
CHEMBL584549

>  <target_organism>  (13) 
Rattus norvegicus

>  <target_molecule_pref_name>  (13) 
3 9-DIHYDRO-N-DESMETHYL-N-ISOPROPYLERYTHROMYCIN A

>  <# Known Targets>  (13) 
3.0

>  <Known Targets>  (13) 
CHEMBL5306,CHEMBL240,CHEMBL3879801

>  <smiles>  (13) 
CC[C@H]1OC(=O)[C@H](C)[C@@H](O[C@H]2C[C@@](C)(OC)[C@@H](O)[C@H](C)O2)[C@H](C)[C@@H](O[C@@H]2O[C@H](C)C[C@H](N(C)C(C)C)[C@H]2O)[C@](C)(O)C[C@@H](C)[C@H](O)[C@H](C)[C@@H](O)[C@]1(C)O

$$$$

     RDKit          2D

 58 60  0  0  0  0  0  0  0  0999 V2000
    5.6205   -1.2990    0.0000 C   0  0  0  0  0  0  0  0  0  0  0  0
    4.8705    0.0000    0.0000 C   0  0  0  0  0  0  0  0  0  0  0  0
    3.3705    0.0000    0.0000 C   0  0  0  0  0  0  0  0  0  0  0  0
    3.0367   -1.4624    0.0000 O   0  0  0  0  0  0  0  0  0  0  0  0
    2.1015   -2.6351    0.0000 C   0  0  0  0  0  0  0  0  0  0  0  0
    3.0367   -3.8079    0.0000 O   0  0  0  0  0  0  0  0  0  0  0  0
    0.7500   -3.2860    0.0000 C   0  0  0  0  0  0  0  0  0  0  0  0
    1.3600   -4.4903    0.0000 C   0  0  0  0  0  0  0  0  0  0  0  0
   -0.7500   -3.2860    0.0000 C   0  0  0  0  0  0  0  0  0  0  0  0
   -1.0838   -4.7484    0.0000 O   0  0  0  0  0  0  0  0  0  0  0  0
    0.0158   -5.7686    0.0000 C   0  0  0  0  0  0  0  0  0  0  0  0
   -0.3180   -7.2310    0.0000 C   0  0  0  0  0  0  0  0  0  0  0  0
    0.7816   -8.2513    0.0000 C   0  0  0  0  0  0  0  0  0  0  0  0
    1.4659   -9.5861    0.0000 C   0  0  0  0  0  0  0  0  0  0  0  0
   -0.4141   -9.1570    0.0000 O   0  0  0  0  0  0  0  0  0  0  0  0
   -0.2276  -10.6453    0.0000 C   0  0  0  0  0  0  0  0  0  0  0  0
    2.2150   -7.8091    0.0000 C   0  0  0  0  0  0  0  0  0  0  0  0
    3.3145   -8.8294    0.0000 O   0  0  0  0  0  0  0  0  0  0  0  0
    2.5487   -6.3467    0.0000 C   0  0  0  0  0  0  0  0  0  0  0  0
    3.9821   -5.9046    0.0000 C   0  0  0  0  0  0  0  0  0  0  0  0
    1.4492   -5.3265    0.0000 O   0  0  0  0  0  0  0  0  0  0  0  0
   -2.1015   -2.6351    0.0000 C   0  0  0  0  0  0  0  0  0  0  0  0
   -3.0367   -3.8079    0.0000 C   0  0  0  0  0  0  0  0  0  0  0  0
   -3.0367   -1.4624    0.0000 C   0  0  0  0  0  0  0  0  0  0  0  0
   -4.3881   -2.1132    0.0000 O   0  0  0  0  0  0  0  0  0  0  0  0
   -5.6275   -1.2682    0.0000 C   0  0  0  0  0  0  0  0  0  0  0  0
   -5.5154    0.2276    0.0000 O   0  0  0  0  0  0  0  0  0  0  0  0
   -6.7548    1.0725    0.0000 C   0  0  0  0  0  0  0  0  0  0  0  0
   -6.6427    2.5684    0.0000 C   0  0  0  0  0  0  0  0  0  0  0  0
   -8.1062    0.4217    0.0000 C   0  0  0  0  0  0  0  0  0  0  0  0
   -8.2183   -1.0741    0.0000 C   0  0  0  0  0  0  0  0  0  0  0  0
   -9.5698   -1.7249    0.0000 N   0  0  0  0  0  0  0  0  0  0  0  0
  -10.8091   -0.8799    0.0000 C   0  0  0  0  0  0  0  0  0  0  0  0
   -9.6819   -3.2207    0.0000 C   0  0  0  0  0  0  0  0  0  0  0  0
   -6.9790   -1.9191    0.0000 C   0  0  0  0  0  0  0  0  0  0  0  0
   -7.0910   -3.4149    0.0000 O   0  0  0  0  0  0  0  0  0  0  0  0
   -3.3705    0.0000    0.0000 C   0  0  0  0  0  0  0  0  0  0  0  0
   -4.6098   -0.8450    0.0000 C   0  0  0  0  0  0  0  0  0  0  0  0
   -4.6098    0.8450    0.0000 O   0  0  0  0  0  0  0  0  0  0  0  0
   -3.0367    1.4624    0.0000 C   0  0  0  0  0  0  0  0  0  0  0  0
   -2.1015    2.6351    0.0000 C   0  0  0  0  0  0  0  0  0  0  0  0
   -3.0367    3.8079    0.0000 C   0  0  0  0  0  0  0  0  0  0  0  0
   -0.7500    3.2860    0.0000 C   0  0  0  0  0  0  0  0  0  0  0  0
   -1.0838    4.7484    0.0000 N   0  0  0  0  0  0  0  0  0  0  0  0
   -2.5171    5.1905    0.0000 O   0  0  0  0  0  0  0  0  0  0  0  0
   -2.8509    6.6529    0.0000 C   0  0  0  0  0  0  0  0  0  0  0  0
   -4.2843    7.0950    0.0000 O   0  0  0  0  0  0  0  0  0  0  0  0
   -4.6181    8.5574    0.0000 C   0  0  0  0  0  0  0  0  0  0  0  0
   -6.0514    8.9995    0.0000 C   0  0  0  0  0  0  0  0  0  0  0  0
   -6.3852   10.4619    0.0000 O   0  0  0  0  0  0  0  0  0  0  0  0
   -7.8186   10.9041    0.0000 C   0  0  0  0  0  0  0  0  0  0  0  0
    0.7500    3.2860    0.0000 C   0  0  0  0  0  0  0  0  0  0  0  0
    1.0838    4.7484    0.0000 C   0  0  0  0  0  0  0  0  0  0  0  0
    2.1015    2.6351    0.0000 C   0  0  0  0  0  0  0  0  0  0  0  0
    3.0367    3.8079    0.0000 O   0  0  0  0  0  0  0  0  0  0  0  0
    3.0367    1.4624    0.0000 C   0  0  0  0  0  0  0  0  0  0  0  0
    3.7867    2.7614    0.0000 C   0  0  0  0  0  0  0  0  0  0  0  0
    4.5199    1.2388    0.0000 O   0  0  0  0  0  0  0  0  0  0  0  0
  1  2  1  0
  3  2  1  6
  3  4  1  0
  4  5  1  0
  5  6  2  0
  5  7  1  0
  7  8  1  6
  7  9  1  0
  9 10  1  6
 11 10  1  1
 11 12  1  0
 12 13  1  0
 13 14  1  6
 13 15  1  0
 15 16  1  0
 13 17  1  0
 17 18  1  1
 17 19  1  0
 19 20  1  1
 19 21  1  0
  9 22  1  0
 22 23  1  6
 22 24  1  0
 24 25  1  6
 26 25  1  1
 26 27  1  0
 27 28  1  0
 28 29  1  6
 28 30  1  0
 30 31  1  0
 31 32  1  6
 32 33  1  0
 32 34  1  0
 31 35  1  0
 35 36  1  1
 24 37  1  0
 37 38  1  1
 37 39  1  0
 37 40  1  0
 40 41  1  0
 41 42  1  6
 41 43  1  0
 43 44  2  0
 44 45  1  0
 45 46  1  0
 46 47  1  0
 47 48  1  0
 48 49  1  0
 49 50  1  0
 50 51  1  0
 43 52  1  0
 52 53  1  6
 52 54  1  0
 54 55  1  6
 54 56  1  0
 56 57  1  1
 56 58  1  0
 56  3  1  0
 21 11  1  0
 35 26  1  0
M  END
>  <ChEMBL_IDs>  (14) 
CHEMBL1557202

>  <target_organism>  (14) 
None

>  <target_molecule_pref_name>  (14) 
None

>  <# Known Targets>  (14) 
3.0

>  <Known Targets>  (14) 
CHEMBL1293231,CHEMBL340,CHEMBL1293235

>  <smiles>  (14) 
CC[C@@H]1OC(=O)[C@H](C)[C@H](O[C@@H]2C[C@](C)(OC)[C@H](O)[C@H](C)O2)[C@H](C)[C@H](O[C@@H]2O[C@@H](C)C[C@@H](N(C)C)[C@@H]2O)[C@](C)(O)C[C@H](C)/C(=N\OCOCCOC)[C@H](C)[C@H](O)[C@]1(C)O

$$$$

     RDKit          2D

 51 53  0  0  0  0  0  0  0  0999 V2000
    5.6205   -1.2990    0.0000 C   0  0  0  0  0  0  0  0  0  0  0  0
    4.8705    0.0000    0.0000 C   0  0  0  0  0  0  0  0  0  0  0  0
    3.3705    0.0000    0.0000 C   0  0  0  0  0  0  0  0  0  0  0  0
    3.0367   -1.4624    0.0000 O   0  0  0  0  0  0  0  0  0  0  0  0
    2.1015   -2.6351    0.0000 C   0  0  0  0  0  0  0  0  0  0  0  0
    3.0367   -3.8079    0.0000 O   0  0  0  0  0  0  0  0  0  0  0  0
    0.7500   -3.2860    0.0000 C   0  0  0  0  0  0  0  0  0  0  0  0
    1.3600   -4.4903    0.0000 C   0  0  0  0  0  0  0  0  0  0  0  0
   -0.7500   -3.2860    0.0000 C   0  0  0  0  0  0  0  0  0  0  0  0
   -1.0838   -4.7484    0.0000 O   0  0  0  0  0  0  0  0  0  0  0  0
    0.0158   -5.7686    0.0000 C   0  0  0  0  0  0  0  0  0  0  0  0
   -0.3180   -7.2310    0.0000 C   0  0  0  0  0  0  0  0  0  0  0  0
    0.7816   -8.2513    0.0000 C   0  0  0  0  0  0  0  0  0  0  0  0
    1.4659   -9.5861    0.0000 C   0  0  0  0  0  0  0  0  0  0  0  0
   -0.4141   -9.1570    0.0000 O   0  0  0  0  0  0  0  0  0  0  0  0
   -0.2276  -10.6453    0.0000 C   0  0  0  0  0  0  0  0  0  0  0  0
    2.2150   -7.8091    0.0000 C   0  0  0  0  0  0  0  0  0  0  0  0
    3.3145   -8.8294    0.0000 O   0  0  0  0  0  0  0  0  0  0  0  0
    2.5487   -6.3467    0.0000 C   0  0  0  0  0  0  0  0  0  0  0  0
    3.9821   -5.9046    0.0000 C   0  0  0  0  0  0  0  0  0  0  0  0
    1.4492   -5.3265    0.0000 O   0  0  0  0  0  0  0  0  0  0  0  0
   -2.1015   -2.6351    0.0000 C   0  0  0  0  0  0  0  0  0  0  0  0
   -3.0367   -3.8079    0.0000 C   0  0  0  0  0  0  0  0  0  0  0  0
   -3.0367   -1.4624    0.0000 C   0  0  0  0  0  0  0  0  0  0  0  0
   -4.3881   -2.1132    0.0000 O   0  0  0  0  0  0  0  0  0  0  0  0
   -5.6275   -1.2682    0.0000 C   0  0  0  0  0  0  0  0  0  0  0  0
   -5.5154    0.2276    0.0000 O   0  0  0  0  0  0  0  0  0  0  0  0
   -6.7548    1.0725    0.0000 C   0  0  0  0  0  0  0  0  0  0  0  0
   -6.6427    2.5684    0.0000 C   0  0  0  0  0  0  0  0  0  0  0  0
   -8.1062    0.4217    0.0000 C   0  0  0  0  0  0  0  0  0  0  0  0
   -8.2183   -1.0741    0.0000 C   0  0  0  0  0  0  0  0  0  0  0  0
   -9.5698   -1.7249    0.0000 N   0  0  0  0  0  0  0  0  0  0  0  0
  -10.8091   -0.8799    0.0000 C   0  0  0  0  0  0  0  0  0  0  0  0
   -9.6819   -3.2207    0.0000 C   0  0  0  0  0  0  0  0  0  0  0  0
   -6.9790   -1.9191    0.0000 C   0  0  0  0  0  0  0  0  0  0  0  0
   -7.0910   -3.4149    0.0000 O   0  0  0  0  0  0  0  0  0  0  0  0
   -3.3705    0.0000    0.0000 C   0  0  0  0  0  0  0  0  0  0  0  0
   -4.6098   -0.8450    0.0000 C   0  0  0  0  0  0  0  0  0  0  0  0
   -4.6098    0.8450    0.0000 O   0  0  0  0  0  0  0  0  0  0  0  0
   -3.0367    1.4624    0.0000 C   0  0  0  0  0  0  0  0  0  0  0  0
   -2.1015    2.6351    0.0000 C   0  0  0  0  0  0  0  0  0  0  0  0
   -3.0367    3.8079    0.0000 C   0  0  0  0  0  0  0  0  0  0  0  0
   -0.7500    3.2860    0.0000 C   0  0  0  0  0  0  0  0  0  0  0  0
   -1.0838    4.7484    0.0000 O   0  0  0  0  0  0  0  0  0  0  0  0
    0.7500    3.2860    0.0000 C   0  0  0  0  0  0  0  0  0  0  0  0
    1.0838    4.7484    0.0000 C   0  0  0  0  0  0  0  0  0  0  0  0
    2.1015    2.6351    0.0000 C   0  0  0  0  0  0  0  0  0  0  0  0
    3.0367    3.8079    0.0000 O   0  0  0  0  0  0  0  0  0  0  0  0
    3.0367    1.4624    0.0000 C   0  0  0  0  0  0  0  0  0  0  0  0
    3.7867    2.7614    0.0000 C   0  0  0  0  0  0  0  0  0  0  0  0
    4.5199    1.2388    0.0000 O   0  0  0  0  0  0  0  0  0  0  0  0
  1  2  1  0
  3  2  1  6
  3  4  1  0
  4  5  1  0
  5  6  2  0
  5  7  1  0
  7  8  1  1
  7  9  1  0
  9 10  1  6
 11 10  1  6
 11 12  1  0
 12 13  1  0
 13 14  1  1
 13 15  1  0
 15 16  1  0
 13 17  1  0
 17 18  1  6
 17 19  1  0
 19 20  1  1
 19 21  1  0
  9 22  1  0
 22 23  1  1
 22 24  1  0
 24 25  1  6
 26 25  1  6
 26 27  1  0
 27 28  1  0
 28 29  1  6
 28 30  1  0
 30 31  1  0
 31 32  1  6
 32 33  1  0
 32 34  1  0
 31 35  1  0
 35 36  1  1
 24 37  1  0
 37 38  1  6
 37 39  1  0
 37 40  1  0
 40 41  1  0
 41 42  1  6
 41 43  1  0
 43 44  2  0
 43 45  1  0
 45 46  1  1
 45 47  1  0
 47 48  1  6
 47 49  1  0
 49 50  1  6
 49 51  1  0
 49  3  1  0
 21 11  1  0
 35 26  1  0
M  END
>  <ChEMBL_IDs>  (15) 
CHEMBL3392931

>  <target_organism>  (15) 
Hepatitis C virus,None

>  <target_molecule_pref_name>  (15) 
None

>  <# Known Targets>  (15) 
3.0

>  <Known Targets>  (15) 
CHEMBL612348,CHEMBL3879801,CHEMBL364

>  <smiles>  (15) 
CC[C@@H]1OC(=O)[C@@H](C)[C@H](O[C@H]2C[C@@](C)(OC)[C@@H](O)[C@H](C)O2)[C@@H](C)[C@H](O[C@H]2O[C@@H](C)C[C@@H](N(C)C)[C@@H]2O)[C@@](C)(O)C[C@H](C)C(=O)[C@@H](C)[C@H](O)[C@@]1(C)O

$$$$

     RDKit          2D

 58 60  0  0  0  0  0  0  0  0999 V2000
    5.6205   -1.2990    0.0000 C   0  0  0  0  0  0  0  0  0  0  0  0
    4.8705    0.0000    0.0000 C   0  0  0  0  0  0  0  0  0  0  0  0
    3.3705    0.0000    0.0000 C   0  0  0  0  0  0  0  0  0  0  0  0
    3.0367   -1.4624    0.0000 O   0  0  0  0  0  0  0  0  0  0  0  0
    2.1015   -2.6351    0.0000 C   0  0  0  0  0  0  0  0  0  0  0  0
    3.0367   -3.8079    0.0000 O   0  0  0  0  0  0  0  0  0  0  0  0
    0.7500   -3.2860    0.0000 C   0  0  0  0  0  0  0  0  0  0  0  0
    1.3600   -4.4903    0.0000 C   0  0  0  0  0  0  0  0  0  0  0  0
   -0.7500   -3.2860    0.0000 C   0  0  0  0  0  0  0  0  0  0  0  0
   -1.0838   -4.7484    0.0000 O   0  0  0  0  0  0  0  0  0  0  0  0
    0.0158   -5.7686    0.0000 C   0  0  0  0  0  0  0  0  0  0  0  0
   -0.3180   -7.2310    0.0000 C   0  0  0  0  0  0  0  0  0  0  0  0
    0.7816   -8.2513    0.0000 C   0  0  0  0  0  0  0  0  0  0  0  0
    1.4659   -9.5861    0.0000 C   0  0  0  0  0  0  0  0  0  0  0  0
   -0.4141   -9.1570    0.0000 O   0  0  0  0  0  0  0  0  0  0  0  0
   -0.2276  -10.6453    0.0000 C   0  0  0  0  0  0  0  0  0  0  0  0
    2.2150   -7.8091    0.0000 C   0  0  0  0  0  0  0  0  0  0  0  0
    3.3145   -8.8294    0.0000 O   0  0  0  0  0  0  0  0  0  0  0  0
    2.5487   -6.3467    0.0000 C   0  0  0  0  0  0  0  0  0  0  0  0
    3.9821   -5.9046    0.0000 C   0  0  0  0  0  0  0  0  0  0  0  0
    1.4492   -5.3265    0.0000 O   0  0  0  0  0  0  0  0  0  0  0  0
   -2.1015   -2.6351    0.0000 C   0  0  0  0  0  0  0  0  0  0  0  0
   -3.0367   -3.8079    0.0000 C   0  0  0  0  0  0  0  0  0  0  0  0
   -3.0367   -1.4624    0.0000 C   0  0  0  0  0  0  0  0  0  0  0  0
   -4.3881   -2.1132    0.0000 O   0  0  0  0  0  0  0  0  0  0  0  0
   -5.6275   -1.2682    0.0000 C   0  0  0  0  0  0  0  0  0  0  0  0
   -5.5154    0.2276    0.0000 O   0  0  0  0  0  0  0  0  0  0  0  0
   -6.7548    1.0725    0.0000 C   0  0  0  0  0  0  0  0  0  0  0  0
   -6.6427    2.5684    0.0000 C   0  0  0  0  0  0  0  0  0  0  0  0
   -8.1062    0.4217    0.0000 C   0  0  0  0  0  0  0  0  0  0  0  0
   -8.2183   -1.0741    0.0000 C   0  0  0  0  0  0  0  0  0  0  0  0
   -9.5698   -1.7249    0.0000 N   0  0  0  0  0  0  0  0  0  0  0  0
  -10.8091   -0.8799    0.0000 C   0  0  0  0  0  0  0  0  0  0  0  0
   -9.6819   -3.2207    0.0000 C   0  0  0  0  0  0  0  0  0  0  0  0
  -11.0333   -3.8715    0.0000 C   0  0  0  0  0  0  0  0  0  0  0  0
   -8.4425   -4.0657    0.0000 C   0  0  0  0  0  0  0  0  0  0  0  0
   -6.9790   -1.9191    0.0000 C   0  0  0  0  0  0  0  0  0  0  0  0
   -7.0910   -3.4149    0.0000 O   0  0  0  0  0  0  0  0  0  0  0  0
   -3.3705    0.0000    0.0000 C   0  0  0  0  0  0  0  0  0  0  0  0
   -4.6098   -0.8450    0.0000 C   0  0  0  0  0  0  0  0  0  0  0  0
   -4.6098    0.8450    0.0000 O   0  0  0  0  0  0  0  0  0  0  0  0
   -3.0367    1.4624    0.0000 C   0  0  0  0  0  0  0  0  0  0  0  0
   -2.1015    2.6351    0.0000 C   0  0  0  0  0  0  0  0  0  0  0  0
   -3.0367    3.8079    0.0000 C   0  0  0  0  0  0  0  0  0  0  0  0
   -0.7500    3.2860    0.0000 C   0  0  0  0  0  0  0  0  0  0  0  0
   -1.0838    4.7484    0.0000 O   0  0  0  0  0  0  0  0  0  0  0  0
    0.0158    5.7686    0.0000 C   0  0  0  0  0  0  0  0  0  0  0  0
   -0.3180    7.2310    0.0000 C   0  0  0  0  0  0  0  0  0  0  0  0
   -1.7513    7.6731    0.0000 O   0  0  0  0  0  0  0  0  0  0  0  0
    0.7816    8.2513    0.0000 N   0  0  0  0  0  0  0  0  0  0  0  0
    0.4478    9.7137    0.0000 C   0  0  0  0  0  0  0  0  0  0  0  0
    0.7500    3.2860    0.0000 C   0  0  0  0  0  0  0  0  0  0  0  0
    1.0838    4.7484    0.0000 C   0  0  0  0  0  0  0  0  0  0  0  0
    2.1015    2.6351    0.0000 C   0  0  0  0  0  0  0  0  0  0  0  0
    3.0367    3.8079    0.0000 O   0  0  0  0  0  0  0  0  0  0  0  0
    3.0367    1.4624    0.0000 C   0  0  0  0  0  0  0  0  0  0  0  0
    3.7867    2.7614    0.0000 C   0  0  0  0  0  0  0  0  0  0  0  0
    4.5199    1.2388    0.0000 O   0  0  0  0  0  0  0  0  0  0  0  0
  1  2  1  0
  3  2  1  1
  3  4  1  0
  4  5  1  0
  5  6  2  0
  5  7  1  0
  7  8  1  6
  7  9  1  0
  9 10  1  1
 11 10  1  6
 11 12  1  0
 12 13  1  0
 13 14  1  1
 13 15  1  0
 15 16  1  0
 13 17  1  0
 17 18  1  6
 17 19  1  0
 19 20  1  1
 19 21  1  0
  9 22  1  0
 22 23  1  6
 22 24  1  0
 24 25  1  1
 26 25  1  1
 26 27  1  0
 27 28  1  0
 28 29  1  1
 28 30  1  0
 30 31  1  0
 31 32  1  1
 32 33  1  0
 32 34  1  0
 34 35  1  0
 34 36  1  0
 31 37  1  0
 37 38  1  6
 24 39  1  0
 39 40  1  1
 39 41  1  0
 39 42  1  0
 42 43  1  0
 43 44  1  1
 43 45  1  0
 45 46  1  6
 46 47  1  0
 47 48  1  0
 48 49  2  0
 48 50  1  0
 50 51  1  0
 45 52  1  0
 52 53  1  6
 52 54  1  0
 54 55  1  1
 54 56  1  0
 56 57  1  1
 56 58  1  0
 56  3  1  0
 21 11  1  0
 37 26  1  0
M  END
>  <ChEMBL_IDs>  (16) 
CHEMBL572996

>  <target_organism>  (16) 
Rattus norvegicus

>  <target_molecule_pref_name>  (16) 
None

>  <# Known Targets>  (16) 
3.0

>  <Known Targets>  (16) 
CHEMBL5306,CHEMBL240,CHEMBL3879801

>  <smiles>  (16) 
CC[C@H]1OC(=O)[C@H](C)[C@@H](O[C@H]2C[C@@](C)(OC)[C@@H](O)[C@H](C)O2)[C@H](C)[C@@H](O[C@@H]2O[C@H](C)C[C@H](N(C)C(C)C)[C@H]2O)[C@](C)(O)C[C@@H](C)[C@H](OCC(=O)NC)[C@H](C)[C@@H](O)[C@]1(C)O

$$$$

     RDKit          2D

 60 62  0  0  0  0  0  0  0  0999 V2000
   -7.1024   -5.2306    0.0000 C   0  0  0  0  0  0  0  0  0  0  0  0
   -5.8630   -4.3856    0.0000 C   0  0  0  0  0  0  0  0  0  0  0  0
   -4.5116   -5.0365    0.0000 O   0  0  0  0  0  0  0  0  0  0  0  0
   -3.2722   -4.1915    0.0000 C   0  0  0  0  0  0  0  0  0  0  0  0
   -3.3318   -3.3966    0.0000 O   0  0  0  0  0  0  0  0  0  0  0  0
   -1.9207   -4.8423    0.0000 C   0  0  0  0  0  0  0  0  0  0  0  0
   -0.6814   -3.9973    0.0000 C   0  0  0  0  0  0  0  0  0  0  0  0
    0.6701   -4.6482    0.0000 C   0  0  0  0  0  0  0  0  0  0  0  0
    0.5990   -6.1465    0.0000 O   0  0  0  0  0  0  0  0  0  0  0  0
    1.9094   -3.8032    0.0000 O   0  0  0  0  0  0  0  0  0  0  0  0
    3.2609   -4.4540    0.0000 C   0  0  0  0  0  0  0  0  0  0  0  0
    4.5002   -3.6090    0.0000 C   0  0  0  0  0  0  0  0  0  0  0  0
    4.3881   -2.1132    0.0000 O   0  0  0  0  0  0  0  0  0  0  0  0
    3.0367   -1.4624    0.0000 C   0  0  0  0  0  0  0  0  0  0  0  0
    3.3705    0.0000    0.0000 C   0  0  0  0  0  0  0  0  0  0  0  0
    4.8705    0.0000    0.0000 C   0  0  0  0  0  0  0  0  0  0  0  0
    3.0367    1.4624    0.0000 C   0  0  0  0  0  0  0  0  0  0  0  0
    4.3881    2.1132    0.0000 O   0  0  0  0  0  0  0  0  0  0  0  0
    4.5002    3.6090    0.0000 C   0  0  0  0  0  0  0  0  0  0  0  0
    5.8517    4.2598    0.0000 C   0  0  0  0  0  0  0  0  0  0  0  0
    5.9638    5.7557    0.0000 C   0  0  0  0  0  0  0  0  0  0  0  0
    6.5807    7.1229    0.0000 C   0  0  0  0  0  0  0  0  0  0  0  0
    7.4174    5.3855    0.0000 O   0  0  0  0  0  0  0  0  0  0  0  0
    8.4648    6.4593    0.0000 C   0  0  0  0  0  0  0  0  0  0  0  0
    4.7244    6.6006    0.0000 C   0  0  0  0  0  0  0  0  0  0  0  0
    4.8365    8.0964    0.0000 O   0  0  0  0  0  0  0  0  0  0  0  0
    3.3730    5.9498    0.0000 C   0  0  0  0  0  0  0  0  0  0  0  0
    2.1336    6.7948    0.0000 C   0  0  0  0  0  0  0  0  0  0  0  0
    3.2609    4.4540    0.0000 O   0  0  0  0  0  0  0  0  0  0  0  0
    2.1015    2.6351    0.0000 C   0  0  0  0  0  0  0  0  0  0  0  0
    2.6628    3.8629    0.0000 C   0  0  0  0  0  0  0  0  0  0  0  0
    0.7500    3.2860    0.0000 C   0  0  0  0  0  0  0  0  0  0  0  0
    1.0838    4.7484    0.0000 O   0  0  0  0  0  0  0  0  0  0  0  0
   -0.7500    3.2860    0.0000 O   0  0  0  0  0  0  0  0  0  0  0  0
   -2.1015    2.6351    0.0000 C   0  0  0  0  0  0  0  0  0  0  0  0
   -3.0367    3.8079    0.0000 C   0  0  0  0  0  0  0  0  0  0  0  0
   -2.4887    5.2042    0.0000 C   0  0  0  0  0  0  0  0  0  0  0  0
   -3.0367    1.4624    0.0000 C   0  0  0  0  0  0  0  0  0  0  0  0
   -4.5199    1.2388    0.0000 C   0  0  0  0  0  0  0  0  0  0  0  0
   -3.7867    2.7614    0.0000 O   0  0  0  0  0  0  0  0  0  0  0  0
   -3.3705    0.0000    0.0000 C   0  0  0  0  0  0  0  0  0  0  0  0
   -4.8705    0.0000    0.0000 O   0  0  0  0  0  0  0  0  0  0  0  0
   -3.0367   -1.4624    0.0000 C   0  0  0  0  0  0  0  0  0  0  0  0
   -4.3881   -2.1132    0.0000 C   0  0  0  0  0  0  0  0  0  0  0  0
   -2.1015   -2.6351    0.0000 C   0  0  0  0  0  0  0  0  0  0  0  0
   -2.7345   -3.1196    0.0000 O   0  0  0  0  0  0  0  0  0  0  0  0
   -0.7500   -3.2860    0.0000 C   0  0  0  0  0  0  0  0  0  0  0  0
   -1.0838   -4.7484    0.0000 C   0  0  0  0  0  0  0  0  0  0  0  0
    0.7500   -3.2860    0.0000 C   0  0  0  0  0  0  0  0  0  0  0  0
    2.1015   -2.6351    0.0000 C   0  0  0  0  0  0  0  0  0  0  0  0
    3.5348   -3.0773    0.0000 C   0  0  0  0  0  0  0  0  0  0  0  0
    1.8483   -4.1136    0.0000 O   0  0  0  0  0  0  0  0  0  0  0  0
    5.8517   -4.2598    0.0000 O   0  0  0  0  0  0  0  0  0  0  0  0
    5.9638   -5.7557    0.0000 C   0  0  0  0  0  0  0  0  0  0  0  0
    7.3152   -6.4065    0.0000 C   0  0  0  0  0  0  0  0  0  0  0  0
    4.7244   -6.6006    0.0000 C   0  0  0  0  0  0  0  0  0  0  0  0
    3.3730   -5.9498    0.0000 C   0  0  0  0  0  0  0  0  0  0  0  0
    2.1336   -6.7948    0.0000 N   0  0  0  0  0  0  0  0  0  0  0  0
    2.2457   -8.2906    0.0000 C   0  0  0  0  0  0  0  0  0  0  0  0
    0.7129   -6.3136    0.0000 C   0  0  0  0  0  0  0  0  0  0  0  0
  1  2  1  0
  2  3  1  0
  3  4  1  0
  4  5  2  0
  4  6  1  0
  6  7  1  0
  7  8  1  0
  8  9  2  0
  8 10  1  0
 11 10  1  1
 11 12  1  0
 12 13  1  0
 14 13  1  1
 14 15  1  0
 15 16  1  0
 15 17  1  0
 17 18  1  1
 19 18  1  6
 19 20  1  0
 20 21  1  0
 21 22  1  1
 21 23  1  0
 23 24  1  0
 21 25  1  0
 25 26  1  0
 25 27  1  0
 27 28  1  0
 27 29  1  0
 17 30  1  0
 30 31  1  0
 30 32  1  0
 32 33  2  0
 32 34  1  0
 34 35  1  0
 35 36  1  0
 36 37  1  0
 35 38  1  0
 38 39  1  1
 38 40  1  0
 38 41  1  0
 41 42  1  0
 41 43  1  0
 43 44  1  1
 43 45  1  0
 45 46  2  0
 45 47  1  0
 47 48  1  0
 47 49  1  0
 49 50  1  0
 50 51  1  6
 50 52  1  0
 12 53  1  0
 53 54  1  0
 54 55  1  0
 54 56  1  0
 56 57  1  0
 57 58  1  0
 58 59  1  0
 58 60  1  0
 57 11  1  0
 50 14  1  0
 29 19  1  0
M  END
>  <ChEMBL_IDs>  (17) 
CHEMBL1492454

>  <target_organism>  (17) 
None

>  <target_molecule_pref_name>  (17) 
None

>  <# Known Targets>  (17) 
2.0

>  <Known Targets>  (17) 
CHEMBL340,CHEMBL1293227

>  <smiles>  (17) 
CCOC(=O)CCC(=O)O[C@H]1C(O[C@@H]2C(C)[C@H](O[C@H]3C[C@@](C)(OC)C(O)C(C)O3)C(C)C(=O)OC(CC)[C@@](C)(O)C(O)[C@H](C)C(=O)C(C)C[C@]2(C)O)OC(C)CC1N(C)C

$$$$

     RDKit          2D

 55 57  0  0  0  0  0  0  0  0999 V2000
    8.4673   -1.7934    0.0000 C   0  0  0  0  0  0  0  0  0  0  0  0
    7.0184   -2.1816    0.0000 O   0  0  0  0  0  0  0  0  0  0  0  0
    6.6301   -3.6305    0.0000 C   0  0  0  0  0  0  0  0  0  0  0  0
    5.1333   -3.5324    0.0000 C   0  0  0  0  0  0  0  0  0  0  0  0
    4.9376   -2.0452    0.0000 O   0  0  0  0  0  0  0  0  0  0  0  0
    6.1276   -1.1321    0.0000 C   0  0  0  0  0  0  0  0  0  0  0  0
    7.5134   -1.7061    0.0000 O   0  0  0  0  0  0  0  0  0  0  0  0
    8.7034   -0.7929    0.0000 C   0  0  0  0  0  0  0  0  0  0  0  0
   10.0893   -1.3670    0.0000 C   0  0  0  0  0  0  0  0  0  0  0  0
    8.5076    0.6942    0.0000 C   0  0  0  0  0  0  0  0  0  0  0  0
    9.6977    1.6074    0.0000 O   0  0  0  0  0  0  0  0  0  0  0  0
   11.0835    1.0333    0.0000 C   0  0  0  0  0  0  0  0  0  0  0  0
   12.2735    1.9465    0.0000 C   0  0  0  0  0  0  0  0  0  0  0  0
   13.6593    1.3725    0.0000 C   0  0  0  0  0  0  0  0  0  0  0  0
   15.1579    1.3070    0.0000 C   0  0  0  0  0  0  0  0  0  0  0  0
   13.9840    2.8369    0.0000 O   0  0  0  0  0  0  0  0  0  0  0  0
   13.8551   -0.1147    0.0000 C   0  0  0  0  0  0  0  0  0  0  0  0
   15.2410   -0.6887    0.0000 O   0  0  0  0  0  0  0  0  0  0  0  0
   15.4367   -2.1759    0.0000 C   0  0  0  0  0  0  0  0  0  0  0  0
   14.2467   -3.0890    0.0000 O   0  0  0  0  0  0  0  0  0  0  0  0
   16.8226   -2.7499    0.0000 C   0  0  0  0  0  0  0  0  0  0  0  0
   17.0184   -4.2371    0.0000 C   0  0  0  0  0  0  0  0  0  0  0  0
   18.4042   -4.8111    0.0000 C   0  0  0  0  0  0  0  0  0  0  0  0
   15.8283   -5.1502    0.0000 C   0  0  0  0  0  0  0  0  0  0  0  0
   12.6651   -1.0279    0.0000 C   0  0  0  0  0  0  0  0  0  0  0  0
   12.8609   -2.5150    0.0000 C   0  0  0  0  0  0  0  0  0  0  0  0
   11.2793   -0.4538    0.0000 O   0  0  0  0  0  0  0  0  0  0  0  0
    7.1218    1.2682    0.0000 C   0  0  0  0  0  0  0  0  0  0  0  0
    6.9260    2.7554    0.0000 N   0  0  0  0  0  0  0  0  0  0  0  0
    8.1161    3.6686    0.0000 C   0  0  0  0  0  0  0  0  0  0  0  0
    5.5402    3.3294    0.0000 C   0  0  0  0  0  0  0  0  0  0  0  0
    5.9318    0.3551    0.0000 C   0  0  0  0  0  0  0  0  0  0  0  0
    4.5460    0.9291    0.0000 O   0  0  0  0  0  0  0  0  0  0  0  0
    3.7130   -4.0145    0.0000 C   0  0  0  0  0  0  0  0  0  0  0  0
    2.9630   -2.7155    0.0000 C   0  0  0  0  0  0  0  0  0  0  0  0
    1.4630   -2.7155    0.0000 C   0  0  0  0  0  0  0  0  0  0  0  0
    0.7130   -1.4165    0.0000 O   0  0  0  0  0  0  0  0  0  0  0  0
    2.5852   -5.0035    0.0000 C   0  0  0  0  0  0  0  0  0  0  0  0
    1.9218   -6.3489    0.0000 C   0  0  0  0  0  0  0  0  0  0  0  0
    0.4729   -5.9606    0.0000 C   0  0  0  0  0  0  0  0  0  0  0  0
    1.8237   -7.8456    0.0000 C   0  0  0  0  0  0  0  0  0  0  0  0
    0.3365   -8.0414    0.0000 O   0  0  0  0  0  0  0  0  0  0  0  0
    2.3058   -9.2660    0.0000 C   0  0  0  0  0  0  0  0  0  0  0  0
    3.2948  -10.3938    0.0000 C   0  0  0  0  0  0  0  0  0  0  0  0
    4.6401  -11.0572    0.0000 C   0  0  0  0  0  0  0  0  0  0  0  0
    6.1369  -11.1553    0.0000 C   0  0  0  0  0  0  0  0  0  0  0  0
    7.5573  -10.6732    0.0000 C   0  0  0  0  0  0  0  0  0  0  0  0
    8.6851   -9.6842    0.0000 C   0  0  0  0  0  0  0  0  0  0  0  0
    9.8751  -10.5973    0.0000 C   0  0  0  0  0  0  0  0  0  0  0  0
    9.3485   -8.3389    0.0000 O   0  0  0  0  0  0  0  0  0  0  0  0
    9.4466   -6.8421    0.0000 C   0  0  0  0  0  0  0  0  0  0  0  0
   10.9338   -6.6463    0.0000 O   0  0  0  0  0  0  0  0  0  0  0  0
    8.9645   -5.4217    0.0000 C   0  0  0  0  0  0  0  0  0  0  0  0
    7.9754   -4.2939    0.0000 C   0  0  0  0  0  0  0  0  0  0  0  0
    8.8886   -3.1039    0.0000 O   0  0  0  0  0  0  0  0  0  0  0  0
  1  2  1  0
  3  2  1  1
  3  4  1  0
  4  5  1  6
  6  5  1  1
  6  7  1  0
  7  8  1  0
  8  9  1  1
  8 10  1  0
 10 11  1  6
 12 11  1  1
 12 13  1  0
 13 14  1  0
 14 15  1  6
 14 16  1  0
 14 17  1  0
 17 18  1  1
 18 19  1  0
 19 20  2  0
 19 21  1  0
 21 22  1  0
 22 23  1  0
 22 24  1  0
 17 25  1  0
 25 26  1  6
 25 27  1  0
 10 28  1  0
 28 29  1  1
 29 30  1  0
 29 31  1  0
 28 32  1  0
 32 33  1  6
  4 34  1  0
 34 35  1  6
 35 36  1  0
 36 37  2  0
 34 38  1  0
 38 39  1  0
 39 40  1  6
 39 41  1  0
 41 42  1  6
 41 43  1  0
 43 44  2  0
 44 45  1  0
 45 46  2  0
 46 47  1  0
 47 48  1  0
 48 49  1  6
 48 50  1  0
 50 51  1  0
 51 52  2  0
 51 53  1  0
 53 54  1  0
 54 55  1  6
 54  3  1  0
 32  6  1  0
 27 12  1  0
M  END
>  <ChEMBL_IDs>  (18) 
CHEMBL2106399

>  <target_organism>  (18) 
Plasmodium falciparum

>  <target_molecule_pref_name>  (18) 
KITASAMYCIN

>  <# Known Targets>  (18) 
2.0

>  <Known Targets>  (18) 
CHEMBL319,CHEMBL612545

>  <smiles>  (18) 
CO[C@@H]1[C@@H](O[C@@H]2O[C@H](C)[C@@H](O[C@H]3C[C@@](C)(O)[C@@H](OC(=O)CC(C)C)[C@H](C)O3)[C@H](N(C)C)[C@H]2O)[C@@H](CC=O)C[C@@H](C)[C@@H](O)/C=C/C=C/C[C@@H](C)OC(=O)C[C@H]1O

$$$$

     RDKit          2D

 55 57  0  0  0  0  0  0  0  0999 V2000
    8.4673   -1.7934    0.0000 C   0  0  0  0  0  0  0  0  0  0  0  0
    7.0184   -2.1816    0.0000 O   0  0  0  0  0  0  0  0  0  0  0  0
    6.6301   -3.6305    0.0000 C   0  0  0  0  0  0  0  0  0  0  0  0
    5.1333   -3.5324    0.0000 C   0  0  0  0  0  0  0  0  0  0  0  0
    4.9376   -2.0452    0.0000 O   0  0  0  0  0  0  0  0  0  0  0  0
    6.1276   -1.1321    0.0000 C   0  0  0  0  0  0  0  0  0  0  0  0
    7.5134   -1.7061    0.0000 O   0  0  0  0  0  0  0  0  0  0  0  0
    8.7034   -0.7929    0.0000 C   0  0  0  0  0  0  0  0  0  0  0  0
   10.0893   -1.3670    0.0000 C   0  0  0  0  0  0  0  0  0  0  0  0
    8.5076    0.6942    0.0000 C   0  0  0  0  0  0  0  0  0  0  0  0
    9.6977    1.6074    0.0000 O   0  0  0  0  0  0  0  0  0  0  0  0
   11.0835    1.0333    0.0000 C   0  0  0  0  0  0  0  0  0  0  0  0
   12.2735    1.9465    0.0000 C   0  0  0  0  0  0  0  0  0  0  0  0
   13.6593    1.3725    0.0000 C   0  0  0  0  0  0  0  0  0  0  0  0
   15.1579    1.3070    0.0000 C   0  0  0  0  0  0  0  0  0  0  0  0
   13.9840    2.8369    0.0000 O   0  0  0  0  0  0  0  0  0  0  0  0
   13.8551   -0.1147    0.0000 C   0  0  0  0  0  0  0  0  0  0  0  0
   15.2410   -0.6887    0.0000 O   0  0  0  0  0  0  0  0  0  0  0  0
   15.4367   -2.1759    0.0000 C   0  0  0  0  0  0  0  0  0  0  0  0
   14.2467   -3.0890    0.0000 O   0  0  0  0  0  0  0  0  0  0  0  0
   16.8226   -2.7499    0.0000 C   0  0  0  0  0  0  0  0  0  0  0  0
   17.0184   -4.2371    0.0000 C   0  0  0  0  0  0  0  0  0  0  0  0
   18.4042   -4.8111    0.0000 C   0  0  0  0  0  0  0  0  0  0  0  0
   15.8283   -5.1502    0.0000 C   0  0  0  0  0  0  0  0  0  0  0  0
   12.6651   -1.0279    0.0000 C   0  0  0  0  0  0  0  0  0  0  0  0
   12.8609   -2.5150    0.0000 C   0  0  0  0  0  0  0  0  0  0  0  0
   11.2793   -0.4538    0.0000 O   0  0  0  0  0  0  0  0  0  0  0  0
    7.1218    1.2682    0.0000 C   0  0  0  0  0  0  0  0  0  0  0  0
    6.9260    2.7554    0.0000 N   0  0  0  0  0  0  0  0  0  0  0  0
    8.1161    3.6686    0.0000 C   0  0  0  0  0  0  0  0  0  0  0  0
    5.5402    3.3294    0.0000 C   0  0  0  0  0  0  0  0  0  0  0  0
    5.9318    0.3551    0.0000 C   0  0  0  0  0  0  0  0  0  0  0  0
    4.5460    0.9291    0.0000 O   0  0  0  0  0  0  0  0  0  0  0  0
    3.7130   -4.0145    0.0000 C   0  0  0  0  0  0  0  0  0  0  0  0
    2.9630   -2.7155    0.0000 C   0  0  0  0  0  0  0  0  0  0  0  0
    1.4630   -2.7155    0.0000 C   0  0  0  0  0  0  0  0  0  0  0  0
    0.7130   -1.4165    0.0000 O   0  0  0  0  0  0  0  0  0  0  0  0
    2.5852   -5.0035    0.0000 C   0  0  0  0  0  0  0  0  0  0  0  0
    1.9218   -6.3489    0.0000 C   0  0  0  0  0  0  0  0  0  0  0  0
    0.4729   -5.9606    0.0000 C   0  0  0  0  0  0  0  0  0  0  0  0
    1.8237   -7.8456    0.0000 C   0  0  0  0  0  0  0  0  0  0  0  0
    0.3365   -8.0414    0.0000 O   0  0  0  0  0  0  0  0  0  0  0  0
    2.3058   -9.2660    0.0000 C   0  0  0  0  0  0  0  0  0  0  0  0
    3.2948  -10.3938    0.0000 C   0  0  0  0  0  0  0  0  0  0  0  0
    4.6401  -11.0572    0.0000 C   0  0  0  0  0  0  0  0  0  0  0  0
    6.1369  -11.1553    0.0000 C   0  0  0  0  0  0  0  0  0  0  0  0
    7.5573  -10.6732    0.0000 C   0  0  0  0  0  0  0  0  0  0  0  0
    8.6851   -9.6842    0.0000 C   0  0  0  0  0  0  0  0  0  0  0  0
    9.8751  -10.5973    0.0000 C   0  0  0  0  0  0  0  0  0  0  0  0
    9.3485   -8.3389    0.0000 O   0  0  0  0  0  0  0  0  0  0  0  0
    9.4466   -6.8421    0.0000 C   0  0  0  0  0  0  0  0  0  0  0  0
   10.9338   -6.6463    0.0000 O   0  0  0  0  0  0  0  0  0  0  0  0
    8.9645   -5.4217    0.0000 C   0  0  0  0  0  0  0  0  0  0  0  0
    7.9754   -4.2939    0.0000 C   0  0  0  0  0  0  0  0  0  0  0  0
    8.8886   -3.1039    0.0000 O   0  0  0  0  0  0  0  0  0  0  0  0
  1  2  1  0
  3  2  1  1
  3  4  1  0
  4  5  1  6
  6  5  1  1
  6  7  1  0
  7  8  1  0
  8  9  1  1
  8 10  1  0
 10 11  1  6
 12 11  1  1
 12 13  1  0
 13 14  1  0
 14 15  1  6
 14 16  1  0
 14 17  1  0
 17 18  1  1
 18 19  1  0
 19 20  2  0
 19 21  1  0
 21 22  1  0
 22 23  1  0
 22 24  1  0
 17 25  1  0
 25 26  1  6
 25 27  1  0
 10 28  1  0
 28 29  1  1
 29 30  1  0
 29 31  1  0
 28 32  1  0
 32 33  1  6
  4 34  1  0
 34 35  1  6
 35 36  1  0
 36 37  2  0
 34 38  1  0
 38 39  1  0
 39 40  1  6
 39 41  1  0
 41 42  1  6
 41 43  1  0
 43 44  2  0
 44 45  1  0
 45 46  2  0
 46 47  1  0
 47 48  1  0
 48 49  1  6
 48 50  1  0
 50 51  1  0
 51 52  2  0
 51 53  1  0
 53 54  1  0
 54 55  1  6
 54  3  1  0
 32  6  1  0
 27 12  1  0
M  END
>  <ChEMBL_IDs>  (19) 
CHEMBL2106399

>  <target_organism>  (19) 
Plasmodium falciparum

>  <target_molecule_pref_name>  (19) 
KITASAMYCIN

>  <# Known Targets>  (19) 
2.0

>  <Known Targets>  (19) 
CHEMBL319,CHEMBL612545

>  <smiles>  (19) 
CO[C@@H]1[C@@H](O[C@@H]2O[C@H](C)[C@@H](O[C@H]3C[C@@](C)(O)[C@@H](OC(=O)CC(C)C)[C@H](C)O3)[C@H](N(C)C)[C@H]2O)[C@@H](CC=O)C[C@@H](C)[C@@H](O)/C=C/C=C/C[C@@H](C)OC(=O)C[C@H]1O

$$$$

     RDKit          2D

 57 59  0  0  0  0  0  0  0  0999 V2000
    5.6205   -1.2990    0.0000 C   0  0  0  0  0  0  0  0  0  0  0  0
    4.8705    0.0000    0.0000 C   0  0  0  0  0  0  0  0  0  0  0  0
    3.3705    0.0000    0.0000 C   0  0  0  0  0  0  0  0  0  0  0  0
    3.0367   -1.4624    0.0000 O   0  0  0  0  0  0  0  0  0  0  0  0
    2.1015   -2.6351    0.0000 C   0  0  0  0  0  0  0  0  0  0  0  0
    3.0367   -3.8079    0.0000 O   0  0  0  0  0  0  0  0  0  0  0  0
    0.7500   -3.2860    0.0000 C   0  0  0  0  0  0  0  0  0  0  0  0
    1.3600   -4.4903    0.0000 C   0  0  0  0  0  0  0  0  0  0  0  0
   -0.7500   -3.2860    0.0000 C   0  0  0  0  0  0  0  0  0  0  0  0
   -1.0838   -4.7484    0.0000 O   0  0  0  0  0  0  0  0  0  0  0  0
    0.0158   -5.7686    0.0000 C   0  0  0  0  0  0  0  0  0  0  0  0
   -0.3180   -7.2310    0.0000 C   0  0  0  0  0  0  0  0  0  0  0  0
    0.7816   -8.2513    0.0000 C   0  0  0  0  0  0  0  0  0  0  0  0
    1.4659   -9.5861    0.0000 C   0  0  0  0  0  0  0  0  0  0  0  0
   -0.4141   -9.1570    0.0000 O   0  0  0  0  0  0  0  0  0  0  0  0
   -0.2276  -10.6453    0.0000 C   0  0  0  0  0  0  0  0  0  0  0  0
    2.2150   -7.8091    0.0000 C   0  0  0  0  0  0  0  0  0  0  0  0
    2.5487   -6.3467    0.0000 C   0  0  0  0  0  0  0  0  0  0  0  0
    3.9821   -5.9046    0.0000 C   0  0  0  0  0  0  0  0  0  0  0  0
    1.4492   -5.3265    0.0000 O   0  0  0  0  0  0  0  0  0  0  0  0
   -2.1015   -2.6351    0.0000 C   0  0  0  0  0  0  0  0  0  0  0  0
   -3.0367   -3.8079    0.0000 C   0  0  0  0  0  0  0  0  0  0  0  0
   -3.0367   -1.4624    0.0000 C   0  0  0  0  0  0  0  0  0  0  0  0
   -4.3881   -2.1132    0.0000 O   0  0  0  0  0  0  0  0  0  0  0  0
   -5.6275   -1.2682    0.0000 C   0  0  0  0  0  0  0  0  0  0  0  0
   -5.5154    0.2276    0.0000 O   0  0  0  0  0  0  0  0  0  0  0  0
   -6.7548    1.0725    0.0000 C   0  0  0  0  0  0  0  0  0  0  0  0
   -6.6427    2.5684    0.0000 C   0  0  0  0  0  0  0  0  0  0  0  0
   -8.1062    0.4217    0.0000 C   0  0  0  0  0  0  0  0  0  0  0  0
   -8.2183   -1.0741    0.0000 C   0  0  0  0  0  0  0  0  0  0  0  0
   -9.5698   -1.7249    0.0000 N   0  0  0  0  0  0  0  0  0  0  0  0
  -10.8091   -0.8799    0.0000 C   0  0  0  0  0  0  0  0  0  0  0  0
   -9.6819   -3.2207    0.0000 C   0  0  0  0  0  0  0  0  0  0  0  0
  -11.0333   -3.8715    0.0000 C   0  0  0  0  0  0  0  0  0  0  0  0
   -8.4425   -4.0657    0.0000 C   0  0  0  0  0  0  0  0  0  0  0  0
   -6.9790   -1.9191    0.0000 C   0  0  0  0  0  0  0  0  0  0  0  0
   -7.0910   -3.4149    0.0000 O   0  0  0  0  0  0  0  0  0  0  0  0
   -3.3705    0.0000    0.0000 C   0  0  0  0  0  0  0  0  0  0  0  0
   -4.6098   -0.8450    0.0000 C   0  0  0  0  0  0  0  0  0  0  0  0
   -4.6098    0.8450    0.0000 O   0  0  0  0  0  0  0  0  0  0  0  0
   -3.0367    1.4624    0.0000 C   0  0  0  0  0  0  0  0  0  0  0  0
   -2.1015    2.6351    0.0000 C   0  0  0  0  0  0  0  0  0  0  0  0
   -3.0367    3.8079    0.0000 C   0  0  0  0  0  0  0  0  0  0  0  0
   -0.7500    3.2860    0.0000 C   0  0  0  0  0  0  0  0  0  0  0  0
   -1.0838    4.7484    0.0000 O   0  0  0  0  0  0  0  0  0  0  0  0
    0.0158    5.7686    0.0000 C   0  0  0  0  0  0  0  0  0  0  0  0
   -0.3180    7.2310    0.0000 C   0  0  0  0  0  0  0  0  0  0  0  0
   -1.7513    7.6731    0.0000 O   0  0  0  0  0  0  0  0  0  0  0  0
    0.7816    8.2513    0.0000 N   0  0  0  0  0  0  0  0  0  0  0  0
    0.4478    9.7137    0.0000 C   0  0  0  0  0  0  0  0  0  0  0  0
    0.7500    3.2860    0.0000 C   0  0  0  0  0  0  0  0  0  0  0  0
    1.0838    4.7484    0.0000 C   0  0  0  0  0  0  0  0  0  0  0  0
    2.1015    2.6351    0.0000 C   0  0  0  0  0  0  0  0  0  0  0  0
    3.0367    3.8079    0.0000 O   0  0  0  0  0  0  0  0  0  0  0  0
    3.0367    1.4624    0.0000 C   0  0  0  0  0  0  0  0  0  0  0  0
    3.7867    2.7614    0.0000 C   0  0  0  0  0  0  0  0  0  0  0  0
    4.5199    1.2388    0.0000 O   0  0  0  0  0  0  0  0  0  0  0  0
  1  2  1  0
  3  2  1  1
  3  4  1  0
  4  5  1  0
  5  6  2  0
  5  7  1  0
  7  8  1  6
  7  9  1  0
  9 10  1  1
 11 10  1  6
 11 12  1  0
 12 13  1  0
 13 14  1  1
 13 15  1  0
 15 16  1  0
 13 17  1  0
 17 18  1  0
 18 19  1  1
 18 20  1  0
  9 21  1  0
 21 22  1  6
 21 23  1  0
 23 24  1  1
 25 24  1  1
 25 26  1  0
 26 27  1  0
 27 28  1  1
 27 29  1  0
 29 30  1  0
 30 31  1  1
 31 32  1  0
 31 33  1  0
 33 34  1  0
 33 35  1  0
 30 36  1  0
 36 37  1  6
 23 38  1  0
 38 39  1  1
 38 40  1  0
 38 41  1  0
 41 42  1  0
 42 43  1  1
 42 44  1  0
 44 45  1  6
 45 46  1  0
 46 47  1  0
 47 48  2  0
 47 49  1  0
 49 50  1  0
 44 51  1  0
 51 52  1  6
 51 53  1  0
 53 54  1  1
 53 55  1  0
 55 56  1  1
 55 57  1  0
 55  3  1  0
 20 11  1  0
 36 25  1  0
M  END
>  <ChEMBL_IDs>  (20) 
CHEMBL1778052

>  <target_organism>  (20) 
Homo sapiens,None,Escherichia coli K-12

>  <target_molecule_pref_name>  (20) 
None

>  <# Known Targets>  (20) 
2.0

>  <Known Targets>  (20) 
CHEMBL5306,CHEMBL240

>  <smiles>  (20) 
CC[C@H]1OC(=O)[C@H](C)[C@@H](O[C@H]2C[C@@](C)(OC)C[C@H](C)O2)[C@H](C)[C@@H](O[C@@H]2O[C@H](C)C[C@H](N(C)C(C)C)[C@H]2O)[C@](C)(O)C[C@@H](C)[C@H](OCC(=O)NC)[C@H](C)[C@@H](O)[C@]1(C)O

$$$$

     RDKit          2D

 57 59  0  0  0  0  0  0  0  0999 V2000
   15.0299   -9.0377    0.0000 C   0  0  0  0  0  0  0  0  0  0  0  0
   13.8398   -9.9509    0.0000 C   0  0  0  0  0  0  0  0  0  0  0  0
   12.4540   -9.3768    0.0000 C   0  0  0  0  0  0  0  0  0  0  0  0
   12.2582   -7.8897    0.0000 O   0  0  0  0  0  0  0  0  0  0  0  0
   11.2640  -10.2900    0.0000 O   0  0  0  0  0  0  0  0  0  0  0  0
    9.8782   -9.7159    0.0000 C   0  0  0  0  0  0  0  0  0  0  0  0
    9.6824   -8.2288    0.0000 C   0  0  0  0  0  0  0  0  0  0  0  0
   10.8724   -7.3156    0.0000 C   0  0  0  0  0  0  0  0  0  0  0  0
    8.2966   -7.6548    0.0000 O   0  0  0  0  0  0  0  0  0  0  0  0
    7.1065   -8.5679    0.0000 C   0  0  0  0  0  0  0  0  0  0  0  0
    5.7207   -7.9939    0.0000 O   0  0  0  0  0  0  0  0  0  0  0  0
    5.5249   -6.5067    0.0000 C   0  0  0  0  0  0  0  0  0  0  0  0
    4.1391   -5.9327    0.0000 C   0  0  0  0  0  0  0  0  0  0  0  0
    2.9491   -6.8458    0.0000 C   0  0  0  0  0  0  0  0  0  0  0  0
    3.9433   -4.4455    0.0000 O   0  0  0  0  0  0  0  0  0  0  0  0
    5.1333   -3.5324    0.0000 C   0  0  0  0  0  0  0  0  0  0  0  0
    4.9376   -2.0452    0.0000 O   0  0  0  0  0  0  0  0  0  0  0  0
    3.5517   -1.4712    0.0000 C   0  0  0  0  0  0  0  0  0  0  0  0
    3.8444    0.0000    0.0000 C   0  0  0  0  0  0  0  0  0  0  0  0
    5.3444    0.0000    0.0000 O   0  0  0  0  0  0  0  0  0  0  0  0
    6.0944   -1.2990    0.0000 C   0  0  0  0  0  0  0  0  0  0  0  0
    3.5517    1.4712    0.0000 C   0  0  0  0  0  0  0  0  0  0  0  0
    4.9376    2.0452    0.0000 O   0  0  0  0  0  0  0  0  0  0  0  0
    5.1333    3.5324    0.0000 C   0  0  0  0  0  0  0  0  0  0  0  0
    3.9433    4.4455    0.0000 O   0  0  0  0  0  0  0  0  0  0  0  0
    6.5192    4.1064    0.0000 C   0  0  0  0  0  0  0  0  0  0  0  0
    6.7150    5.5936    0.0000 C   0  0  0  0  0  0  0  0  0  0  0  0
    2.7184    2.7184    0.0000 C   0  0  0  0  0  0  0  0  0  0  0  0
    1.4712    3.5517    0.0000 C   0  0  0  0  0  0  0  0  0  0  0  0
    2.0452    4.9376    0.0000 O   0  0  0  0  0  0  0  0  0  0  0  0
    0.0000    3.8444    0.0000 O   0  0  0  0  0  0  0  0  0  0  0  0
   -1.4712    3.5517    0.0000 C   0  0  0  0  0  0  0  0  0  0  0  0
   -2.0452    4.9376    0.0000 C   0  0  0  0  0  0  0  0  0  0  0  0
   -2.7184    2.7184    0.0000 C   0  0  0  0  0  0  0  0  0  0  0  0
   -3.5517    1.4712    0.0000 C   0  0  0  0  0  0  0  0  0  0  0  0
   -3.8444    0.0000    0.0000 C   0  0  0  0  0  0  0  0  0  0  0  0
   -3.5517   -1.4712    0.0000 C   0  0  0  0  0  0  0  0  0  0  0  0
   -2.7184   -2.7184    0.0000 C   0  0  0  0  0  0  0  0  0  0  0  0
   -1.4712   -3.5517    0.0000 C   0  0  0  0  0  0  0  0  0  0  0  0
   -2.0452   -4.9376    0.0000 O   0  0  0  0  0  0  0  0  0  0  0  0
   -0.0000   -3.8444    0.0000 C   0  0  0  0  0  0  0  0  0  0  0  0
   -0.0000   -5.3444    0.0000 C   0  0  0  0  0  0  0  0  0  0  0  0
    1.4712   -3.5517    0.0000 C   0  0  0  0  0  0  0  0  0  0  0  0
    2.7184   -2.7184    0.0000 C   0  0  0  0  0  0  0  0  0  0  0  0
    3.7790   -3.7790    0.0000 C   0  0  0  0  0  0  0  0  0  0  0  0
    3.3908   -5.2279    0.0000 C   0  0  0  0  0  0  0  0  0  0  0  0
    4.1633   -6.5137    0.0000 O   0  0  0  0  0  0  0  0  0  0  0  0
    6.5192   -4.1064    0.0000 C   0  0  0  0  0  0  0  0  0  0  0  0
    7.7092   -3.1933    0.0000 O   0  0  0  0  0  0  0  0  0  0  0  0
    6.7150   -5.5936    0.0000 C   0  0  0  0  0  0  0  0  0  0  0  0
    8.1008   -6.1676    0.0000 N   0  0  0  0  0  0  0  0  0  0  0  0
    9.2908   -5.2544    0.0000 C   0  0  0  0  0  0  0  0  0  0  0  0
    8.6506   -7.5632    0.0000 C   0  0  0  0  0  0  0  0  0  0  0  0
    7.3023  -10.0551    0.0000 C   0  0  0  0  0  0  0  0  0  0  0  0
    8.6881  -10.6291    0.0000 C   0  0  0  0  0  0  0  0  0  0  0  0
    7.8822  -11.8942    0.0000 C   0  0  0  0  0  0  0  0  0  0  0  0
    9.7941  -11.6425    0.0000 O   0  0  0  0  0  0  0  0  0  0  0  0
  1  2  1  0
  2  3  1  0
  3  4  2  0
  3  5  1  0
  6  5  1  6
  6  7  1  0
  7  8  1  1
  7  9  1  0
  9 10  1  0
 10 11  1  6
 12 11  1  6
 12 13  1  0
 13 14  1  1
 13 15  1  0
 15 16  1  0
 16 17  1  6
 18 17  1  1
 18 19  1  0
 19 20  1  6
 20 21  1  0
 19 22  1  0
 22 23  1  1
 23 24  1  0
 24 25  2  0
 24 26  1  0
 26 27  1  0
 22 28  1  0
 28 29  1  0
 29 30  2  0
 29 31  1  0
 31 32  1  0
 32 33  1  1
 32 34  1  0
 34 35  1  0
 35 36  2  0
 36 37  1  0
 37 38  2  0
 38 39  1  0
 39 40  1  6
 39 41  1  0
 41 42  1  1
 41 43  1  0
 43 44  1  0
 44 45  1  1
 45 46  1  0
 46 47  2  0
 16 48  1  0
 48 49  1  6
 48 50  1  0
 50 51  1  1
 51 52  1  0
 51 53  1  0
 10 54  1  0
 54 55  1  0
 55 56  1  1
 55 57  1  0
 55  6  1  0
 50 12  1  0
 44 18  1  0
M  END
>  <ChEMBL_IDs>  (21) 
CHEMBL1305053

>  <target_organism>  (21) 
nan

>  <target_molecule_pref_name>  (21) 
None

>  <# Known Targets>  (21) 
2.0

>  <Known Targets>  (21) 
CHEMBL6110,CHEMBL1293303

>  <smiles>  (21) 
CCC(=O)O[C@H]1[C@H](C)O[C@@H](O[C@@H]2[C@@H](C)O[C@H](O[C@@H]3[C@@H](OC)[C@H](OC(=O)CC)CC(=O)O[C@H](C)CC=CC=C[C@@H](O)[C@H](C)C[C@@H]3CC=O)[C@H](O)[C@H]2N(C)C)C[C@@]1(C)O

$$$$

     RDKit          2D

 58 60  0  0  0  0  0  0  0  0999 V2000
    6.0944   -1.2990    0.0000 C   0  0  0  0  0  0  0  0  0  0  0  0
    5.3444   -0.0000    0.0000 O   0  0  0  0  0  0  0  0  0  0  0  0
    3.8444   -0.0000    0.0000 C   0  0  0  0  0  0  0  0  0  0  0  0
    3.5517   -1.4712    0.0000 C   0  0  0  0  0  0  0  0  0  0  0  0
    4.9376   -2.0452    0.0000 O   0  0  0  0  0  0  0  0  0  0  0  0
    5.1333   -3.5324    0.0000 C   0  0  0  0  0  0  0  0  0  0  0  0
    6.5192   -4.1064    0.0000 C   0  0  0  0  0  0  0  0  0  0  0  0
    3.9433   -4.4455    0.0000 O   0  0  0  0  0  0  0  0  0  0  0  0
    2.7184   -2.7184    0.0000 C   0  0  0  0  0  0  0  0  0  0  0  0
    1.4712   -3.5517    0.0000 C   0  0  0  0  0  0  0  0  0  0  0  0
    2.0452   -4.9376    0.0000 O   0  0  0  0  0  0  0  0  0  0  0  0
   -0.0000   -3.8444    0.0000 O   0  0  0  0  0  0  0  0  0  0  0  0
   -1.4712   -3.5517    0.0000 C   0  0  0  0  0  0  0  0  0  0  0  0
   -2.0452   -4.9376    0.0000 C   0  0  0  0  0  0  0  0  0  0  0  0
   -2.7184   -2.7184    0.0000 C   0  0  0  0  0  0  0  0  0  0  0  0
   -3.5517   -1.4712    0.0000 C   0  0  0  0  0  0  0  0  0  0  0  0
   -3.8444    0.0000    0.0000 C   0  0  0  0  0  0  0  0  0  0  0  0
   -3.5517    1.4712    0.0000 C   0  0  0  0  0  0  0  0  0  0  0  0
   -2.7184    2.7184    0.0000 C   0  0  0  0  0  0  0  0  0  0  0  0
   -1.4712    3.5517    0.0000 C   0  0  0  0  0  0  0  0  0  0  0  0
   -2.0452    4.9376    0.0000 O   0  0  0  0  0  0  0  0  0  0  0  0
   -0.0000    3.8444    0.0000 C   0  0  0  0  0  0  0  0  0  0  0  0
    0.0000    5.3444    0.0000 C   0  0  0  0  0  0  0  0  0  0  0  0
    1.4712    3.5517    0.0000 C   0  0  0  0  0  0  0  0  0  0  0  0
    2.7184    2.7184    0.0000 C   0  0  0  0  0  0  0  0  0  0  0  0
    3.7790    3.7790    0.0000 C   0  0  0  0  0  0  0  0  0  0  0  0
    5.2279    3.3908    0.0000 C   0  0  0  0  0  0  0  0  0  0  0  0
    6.2886    4.4515    0.0000 O   0  0  0  0  0  0  0  0  0  0  0  0
    3.5517    1.4712    0.0000 C   0  0  0  0  0  0  0  0  0  0  0  0
    4.9376    2.0452    0.0000 O   0  0  0  0  0  0  0  0  0  0  0  0
    6.1276    1.1321    0.0000 C   0  0  0  0  0  0  0  0  0  0  0  0
    5.9318   -0.3551    0.0000 O   0  0  0  0  0  0  0  0  0  0  0  0
    7.1218   -1.2682    0.0000 C   0  0  0  0  0  0  0  0  0  0  0  0
    6.9260   -2.7554    0.0000 C   0  0  0  0  0  0  0  0  0  0  0  0
    8.5076   -0.6942    0.0000 C   0  0  0  0  0  0  0  0  0  0  0  0
    9.6977   -1.6074    0.0000 O   0  0  0  0  0  0  0  0  0  0  0  0
   11.0835   -1.0333    0.0000 C   0  0  0  0  0  0  0  0  0  0  0  0
   12.2735   -1.9465    0.0000 C   0  0  0  0  0  0  0  0  0  0  0  0
   13.6593   -1.3725    0.0000 C   0  0  0  0  0  0  0  0  0  0  0  0
   15.1579   -1.3070    0.0000 C   0  0  0  0  0  0  0  0  0  0  0  0
   13.9840   -2.8369    0.0000 O   0  0  0  0  0  0  0  0  0  0  0  0
   13.8551    0.1147    0.0000 C   0  0  0  0  0  0  0  0  0  0  0  0
   15.2410    0.6887    0.0000 O   0  0  0  0  0  0  0  0  0  0  0  0
   15.4367    2.1759    0.0000 C   0  0  0  0  0  0  0  0  0  0  0  0
   14.2467    3.0890    0.0000 O   0  0  0  0  0  0  0  0  0  0  0  0
   16.8226    2.7499    0.0000 C   0  0  0  0  0  0  0  0  0  0  0  0
   17.0184    4.2371    0.0000 C   0  0  0  0  0  0  0  0  0  0  0  0
   18.4042    4.8111    0.0000 C   0  0  0  0  0  0  0  0  0  0  0  0
   15.8283    5.1502    0.0000 C   0  0  0  0  0  0  0  0  0  0  0  0
   12.6651    1.0279    0.0000 C   0  0  0  0  0  0  0  0  0  0  0  0
   12.8609    2.5150    0.0000 C   0  0  0  0  0  0  0  0  0  0  0  0
   11.2793    0.4538    0.0000 O   0  0  0  0  0  0  0  0  0  0  0  0
    8.7034    0.7929    0.0000 C   0  0  0  0  0  0  0  0  0  0  0  0
   10.0893    1.3670    0.0000 N   0  0  0  0  0  0  0  0  0  0  0  0
   10.2850    2.8541    0.0000 C   0  0  0  0  0  0  0  0  0  0  0  0
   11.4649    0.7689    0.0000 C   0  0  0  0  0  0  0  0  0  0  0  0
    7.5134    1.7061    0.0000 C   0  0  0  0  0  0  0  0  0  0  0  0
    7.7092    3.1933    0.0000 O   0  0  0  0  0  0  0  0  0  0  0  0
  1  2  1  0
  3  2  1  6
  3  4  1  0
  4  5  1  6
  5  6  1  0
  6  7  1  0
  6  8  2  0
  4  9  1  0
  9 10  1  0
 10 11  2  0
 10 12  1  0
 12 13  1  0
 13 14  1  6
 13 15  1  0
 15 16  1  0
 16 17  2  0
 17 18  1  0
 18 19  2  0
 19 20  1  0
 20 21  1  6
 20 22  1  0
 22 23  1  6
 22 24  1  0
 24 25  1  0
 25 26  1  6
 26 27  1  0
 27 28  2  0
 25 29  1  0
 29 30  1  1
 31 30  1  6
 31 32  1  0
 32 33  1  0
 33 34  1  6
 33 35  1  0
 35 36  1  6
 37 36  1  1
 37 38  1  0
 38 39  1  0
 39 40  1  6
 39 41  1  0
 39 42  1  0
 42 43  1  1
 43 44  1  0
 44 45  2  0
 44 46  1  0
 46 47  1  0
 47 48  1  0
 47 49  1  0
 42 50  1  0
 50 51  1  1
 50 52  1  0
 35 53  1  0
 53 54  1  6
 54 55  1  0
 54 56  1  0
 53 57  1  0
 57 58  1  1
 29  3  1  0
 57 31  1  0
 52 37  1  0
M  END
>  <ChEMBL_IDs>  (22) 
CHEMBL1326015

>  <target_organism>  (22) 
nan

>  <target_molecule_pref_name>  (22) 
None

>  <# Known Targets>  (22) 
2.0

>  <Known Targets>  (22) 
CHEMBL340,CHEMBL1293227

>  <smiles>  (22) 
CO[C@@H]1[C@H](OC(C)=O)CC(=O)O[C@H](C)C/C=C\C=C/[C@H](O)[C@H](C)C[C@H](CC=O)[C@H]1O[C@H]1O[C@@H](C)[C@@H](O[C@@H]2C[C@](C)(O)[C@H](OC(=O)CC(C)C)[C@H](C)O2)[C@@H](N(C)C)[C@@H]1O

$$$$

     RDKit          2D

 51 53  0  0  0  0  0  0  0  0999 V2000
    5.6205   -1.2990    0.0000 C   0  0  0  0  0  0  0  0  0  0  0  0
    4.8705    0.0000    0.0000 C   0  0  0  0  0  0  0  0  0  0  0  0
    3.3705    0.0000    0.0000 C   0  0  0  0  0  0  0  0  0  0  0  0
    3.0367   -1.4624    0.0000 O   0  0  0  0  0  0  0  0  0  0  0  0
    2.1015   -2.6351    0.0000 C   0  0  0  0  0  0  0  0  0  0  0  0
    3.0367   -3.8079    0.0000 O   0  0  0  0  0  0  0  0  0  0  0  0
    0.7500   -3.2860    0.0000 C   0  0  0  0  0  0  0  0  0  0  0  0
    1.3600   -4.4903    0.0000 C   0  0  0  0  0  0  0  0  0  0  0  0
   -0.7500   -3.2860    0.0000 C   0  0  0  0  0  0  0  0  0  0  0  0
   -1.0838   -4.7484    0.0000 O   0  0  0  0  0  0  0  0  0  0  0  0
    0.0158   -5.7686    0.0000 C   0  0  0  0  0  0  0  0  0  0  0  0
   -0.3180   -7.2310    0.0000 C   0  0  0  0  0  0  0  0  0  0  0  0
    0.7816   -8.2513    0.0000 C   0  0  0  0  0  0  0  0  0  0  0  0
    1.4659   -9.5861    0.0000 C   0  0  0  0  0  0  0  0  0  0  0  0
   -0.4141   -9.1570    0.0000 O   0  0  0  0  0  0  0  0  0  0  0  0
   -0.2276  -10.6453    0.0000 C   0  0  0  0  0  0  0  0  0  0  0  0
    2.2150   -7.8091    0.0000 C   0  0  0  0  0  0  0  0  0  0  0  0
    3.3145   -8.8294    0.0000 O   0  0  0  0  0  0  0  0  0  0  0  0
    2.5487   -6.3467    0.0000 C   0  0  0  0  0  0  0  0  0  0  0  0
    3.9821   -5.9046    0.0000 C   0  0  0  0  0  0  0  0  0  0  0  0
    1.4492   -5.3265    0.0000 O   0  0  0  0  0  0  0  0  0  0  0  0
   -2.1015   -2.6351    0.0000 C   0  0  0  0  0  0  0  0  0  0  0  0
   -3.0367   -3.8079    0.0000 C   0  0  0  0  0  0  0  0  0  0  0  0
   -3.0367   -1.4624    0.0000 C   0  0  0  0  0  0  0  0  0  0  0  0
   -4.3881   -2.1132    0.0000 O   0  0  0  0  0  0  0  0  0  0  0  0
   -5.6275   -1.2682    0.0000 C   0  0  0  0  0  0  0  0  0  0  0  0
   -5.5154    0.2276    0.0000 O   0  0  0  0  0  0  0  0  0  0  0  0
   -6.7548    1.0725    0.0000 C   0  0  0  0  0  0  0  0  0  0  0  0
   -6.6427    2.5684    0.0000 C   0  0  0  0  0  0  0  0  0  0  0  0
   -8.1062    0.4217    0.0000 C   0  0  0  0  0  0  0  0  0  0  0  0
   -8.2183   -1.0741    0.0000 C   0  0  0  0  0  0  0  0  0  0  0  0
   -9.5698   -1.7249    0.0000 N   0  0  0  0  0  0  0  0  0  0  0  0
  -10.8091   -0.8799    0.0000 C   0  0  0  0  0  0  0  0  0  0  0  0
   -9.6819   -3.2207    0.0000 C   0  0  0  0  0  0  0  0  0  0  0  0
   -6.9790   -1.9191    0.0000 C   0  0  0  0  0  0  0  0  0  0  0  0
   -7.0910   -3.4149    0.0000 O   0  0  0  0  0  0  0  0  0  0  0  0
   -3.3705    0.0000    0.0000 C   0  0  0  0  0  0  0  0  0  0  0  0
   -4.6098   -0.8450    0.0000 C   0  0  0  0  0  0  0  0  0  0  0  0
   -4.6098    0.8450    0.0000 O   0  0  0  0  0  0  0  0  0  0  0  0
   -3.0367    1.4624    0.0000 C   0  0  0  0  0  0  0  0  0  0  0  0
   -2.1015    2.6351    0.0000 C   0  0  0  0  0  0  0  0  0  0  0  0
   -3.0367    3.8079    0.0000 C   0  0  0  0  0  0  0  0  0  0  0  0
   -0.7500    3.2860    0.0000 C   0  0  0  0  0  0  0  0  0  0  0  0
   -1.0838    4.7484    0.0000 O   0  0  0  0  0  0  0  0  0  0  0  0
    0.7500    3.2860    0.0000 C   0  0  0  0  0  0  0  0  0  0  0  0
    1.0838    4.7484    0.0000 C   0  0  0  0  0  0  0  0  0  0  0  0
    2.1015    2.6351    0.0000 C   0  0  0  0  0  0  0  0  0  0  0  0
    3.0367    3.8079    0.0000 O   0  0  0  0  0  0  0  0  0  0  0  0
    3.0367    1.4624    0.0000 C   0  0  0  0  0  0  0  0  0  0  0  0
    3.7867    2.7614    0.0000 C   0  0  0  0  0  0  0  0  0  0  0  0
    4.5199    1.2388    0.0000 O   0  0  0  0  0  0  0  0  0  0  0  0
  1  2  1  0
  2  3  1  0
  3  4  1  0
  4  5  1  0
  5  6  2  0
  5  7  1  0
  7  8  1  0
  7  9  1  0
  9 10  1  0
 11 10  1  6
 11 12  1  0
 12 13  1  0
 13 14  1  1
 13 15  1  0
 15 16  1  0
 13 17  1  0
 17 18  1  6
 17 19  1  0
 19 20  1  0
 19 21  1  0
  9 22  1  0
 22 23  1  0
 22 24  1  0
 24 25  1  1
 25 26  1  0
 26 27  1  0
 27 28  1  0
 28 29  1  0
 28 30  1  0
 30 31  1  0
 31 32  1  0
 32 33  1  0
 32 34  1  0
 31 35  1  0
 35 36  1  6
 24 37  1  0
 37 38  1  6
 37 39  1  0
 37 40  1  0
 40 41  1  0
 41 42  1  1
 41 43  1  0
 43 44  2  0
 43 45  1  0
 45 46  1  6
 45 47  1  0
 47 48  1  1
 47 49  1  0
 49 50  1  1
 49 51  1  0
 49  3  1  0
 21 11  1  0
 35 26  1  0
M  END
>  <ChEMBL_IDs>  (23) 
CHEMBL406517

>  <target_organism>  (23) 
Hepatitis C virus,None

>  <target_molecule_pref_name>  (23) 
None

>  <# Known Targets>  (23) 
2.0

>  <Known Targets>  (23) 
CHEMBL5306,CHEMBL374

>  <smiles>  (23) 
CCC1OC(=O)C(C)C(O[C@H]2C[C@@](C)(OC)[C@@H](O)C(C)O2)C(C)[C@@H](OC2OC(C)CC(N(C)C)[C@H]2O)[C@@](C)(O)C[C@@H](C)C(=O)[C@H](C)[C@@H](O)[C@]1(C)O

$$$$

     RDKit          2D

 52 54  0  0  0  0  0  0  0  0999 V2000
    5.6205   -1.2990    0.0000 C   0  0  0  0  0  0  0  0  0  0  0  0
    4.8705    0.0000    0.0000 C   0  0  0  0  0  0  0  0  0  0  0  0
    3.3705    0.0000    0.0000 C   0  0  0  0  0  0  0  0  0  0  0  0
    3.0367   -1.4624    0.0000 O   0  0  0  0  0  0  0  0  0  0  0  0
    2.1015   -2.6351    0.0000 C   0  0  0  0  0  0  0  0  0  0  0  0
    3.0367   -3.8079    0.0000 O   0  0  0  0  0  0  0  0  0  0  0  0
    0.7500   -3.2860    0.0000 C   0  0  0  0  0  0  0  0  0  0  0  0
    1.3600   -4.4903    0.0000 C   0  0  0  0  0  0  0  0  0  0  0  0
   -0.7500   -3.2860    0.0000 C   0  0  0  0  0  0  0  0  0  0  0  0
   -1.0838   -4.7484    0.0000 O   0  0  0  0  0  0  0  0  0  0  0  0
    0.0158   -5.7686    0.0000 C   0  0  0  0  0  0  0  0  0  0  0  0
   -0.3180   -7.2310    0.0000 C   0  0  0  0  0  0  0  0  0  0  0  0
    0.7816   -8.2513    0.0000 C   0  0  0  0  0  0  0  0  0  0  0  0
    1.4659   -9.5861    0.0000 C   0  0  0  0  0  0  0  0  0  0  0  0
   -0.4141   -9.1570    0.0000 O   0  0  0  0  0  0  0  0  0  0  0  0
   -0.2276  -10.6453    0.0000 C   0  0  0  0  0  0  0  0  0  0  0  0
    2.2150   -7.8091    0.0000 C   0  0  0  0  0  0  0  0  0  0  0  0
    3.3145   -8.8294    0.0000 O   0  0  0  0  0  0  0  0  0  0  0  0
    2.5487   -6.3467    0.0000 C   0  0  0  0  0  0  0  0  0  0  0  0
    3.9821   -5.9046    0.0000 C   0  0  0  0  0  0  0  0  0  0  0  0
    1.4492   -5.3265    0.0000 O   0  0  0  0  0  0  0  0  0  0  0  0
   -2.1015   -2.6351    0.0000 C   0  0  0  0  0  0  0  0  0  0  0  0
   -3.0367   -3.8079    0.0000 C   0  0  0  0  0  0  0  0  0  0  0  0
   -3.0367   -1.4624    0.0000 C   0  0  0  0  0  0  0  0  0  0  0  0
   -4.3881   -2.1132    0.0000 O   0  0  0  0  0  0  0  0  0  0  0  0
   -5.6275   -1.2682    0.0000 C   0  0  0  0  0  0  0  0  0  0  0  0
   -5.5154    0.2276    0.0000 O   0  0  0  0  0  0  0  0  0  0  0  0
   -6.7548    1.0725    0.0000 C   0  0  0  0  0  0  0  0  0  0  0  0
   -6.6427    2.5684    0.0000 C   0  0  0  0  0  0  0  0  0  0  0  0
   -8.1062    0.4217    0.0000 C   0  0  0  0  0  0  0  0  0  0  0  0
   -8.2183   -1.0741    0.0000 C   0  0  0  0  0  0  0  0  0  0  0  0
   -9.5698   -1.7249    0.0000 N   0  0  0  0  0  0  0  0  0  0  0  0
  -10.8091   -0.8799    0.0000 C   0  0  0  0  0  0  0  0  0  0  0  0
   -9.6819   -3.2207    0.0000 C   0  0  0  0  0  0  0  0  0  0  0  0
   -6.9790   -1.9191    0.0000 C   0  0  0  0  0  0  0  0  0  0  0  0
   -7.0910   -3.4149    0.0000 O   0  0  0  0  0  0  0  0  0  0  0  0
   -3.3705    0.0000    0.0000 C   0  0  0  0  0  0  0  0  0  0  0  0
   -4.6098   -0.8450    0.0000 C   0  0  0  0  0  0  0  0  0  0  0  0
   -4.6098    0.8450    0.0000 O   0  0  0  0  0  0  0  0  0  0  0  0
   -5.3904    0.6832    0.0000 C   0  0  0  0  0  0  0  0  0  0  0  0
   -3.0367    1.4624    0.0000 C   0  0  0  0  0  0  0  0  0  0  0  0
   -2.1015    2.6351    0.0000 C   0  0  0  0  0  0  0  0  0  0  0  0
   -3.0367    3.8079    0.0000 C   0  0  0  0  0  0  0  0  0  0  0  0
   -0.7500    3.2860    0.0000 C   0  0  0  0  0  0  0  0  0  0  0  0
   -1.0838    4.7484    0.0000 O   0  0  0  0  0  0  0  0  0  0  0  0
    0.7500    3.2860    0.0000 C   0  0  0  0  0  0  0  0  0  0  0  0
    1.0838    4.7484    0.0000 C   0  0  0  0  0  0  0  0  0  0  0  0
    2.1015    2.6351    0.0000 C   0  0  0  0  0  0  0  0  0  0  0  0
    3.0367    3.8079    0.0000 O   0  0  0  0  0  0  0  0  0  0  0  0
    3.0367    1.4624    0.0000 C   0  0  0  0  0  0  0  0  0  0  0  0
    3.7867    2.7614    0.0000 C   0  0  0  0  0  0  0  0  0  0  0  0
    4.5199    1.2388    0.0000 O   0  0  0  0  0  0  0  0  0  0  0  0
  1  2  1  0
  2  3  1  0
  3  4  1  0
  4  5  1  0
  5  6  2  0
  5  7  1  0
  7  8  1  0
  7  9  1  0
  9 10  1  0
 10 11  1  0
 11 12  1  0
 12 13  1  0
 13 14  1  0
 13 15  1  0
 15 16  1  0
 13 17  1  0
 17 18  1  0
 17 19  1  0
 19 20  1  0
 19 21  1  0
  9 22  1  0
 22 23  1  0
 22 24  1  0
 24 25  1  0
 25 26  1  0
 26 27  1  0
 27 28  1  0
 28 29  1  0
 28 30  1  0
 30 31  1  0
 31 32  1  0
 32 33  1  0
 32 34  1  0
 31 35  1  0
 35 36  1  0
 24 37  1  0
 37 38  1  0
 37 39  1  0
 39 40  1  0
 37 41  1  0
 41 42  1  0
 42 43  1  0
 42 44  1  0
 44 45  2  0
 44 46  1  0
 46 47  1  0
 46 48  1  0
 48 49  1  0
 48 50  1  0
 50 51  1  0
 50 52  1  0
 50  3  1  0
 21 11  1  0
 35 26  1  0
M  END
>  <ChEMBL_IDs>  (24) 
CHEMBL1671904

>  <target_organism>  (24) 
None

>  <target_molecule_pref_name>  (24) 
None

>  <# Known Targets>  (24) 
2.0

>  <Known Targets>  (24) 
CHEMBL340,CHEMBL240

>  <smiles>  (24) 
CCC1OC(=O)C(C)C(OC2CC(C)(OC)C(O)C(C)O2)C(C)C(OC2OC(C)CC(N(C)C)C2O)C(C)(OC)CC(C)C(=O)C(C)C(O)C1(C)O

$$$$

     RDKit          2D

 64 66  0  0  0  0  0  0  0  0999 V2000
    6.0944   -1.2990    0.0000 C   0  0  0  0  0  0  0  0  0  0  0  0
    5.3444    0.0000    0.0000 O   0  0  0  0  0  0  0  0  0  0  0  0
    3.8444    0.0000    0.0000 C   0  0  0  0  0  0  0  0  0  0  0  0
    3.5517   -1.4712    0.0000 C   0  0  0  0  0  0  0  0  0  0  0  0
    4.9376   -2.0452    0.0000 O   0  0  0  0  0  0  0  0  0  0  0  0
    5.1333   -3.5324    0.0000 C   0  0  0  0  0  0  0  0  0  0  0  0
    6.5192   -4.1064    0.0000 O   0  0  0  0  0  0  0  0  0  0  0  0
    6.7150   -5.5936    0.0000 C   0  0  0  0  0  0  0  0  0  0  0  0
    8.1008   -6.1676    0.0000 C   0  0  0  0  0  0  0  0  0  0  0  0
    5.5249   -6.5067    0.0000 C   0  0  0  0  0  0  0  0  0  0  0  0
    5.7207   -7.9939    0.0000 O   0  0  0  0  0  0  0  0  0  0  0  0
    7.1065   -8.5679    0.0000 C   0  0  0  0  0  0  0  0  0  0  0  0
    8.2966   -7.6548    0.0000 C   0  0  0  0  0  0  0  0  0  0  0  0
    9.6824   -8.2288    0.0000 C   0  0  0  0  0  0  0  0  0  0  0  0
   11.1810   -8.2942    0.0000 C   0  0  0  0  0  0  0  0  0  0  0  0
   10.0070   -6.7643    0.0000 O   0  0  0  0  0  0  0  0  0  0  0  0
    9.8782   -9.7159    0.0000 C   0  0  0  0  0  0  0  0  0  0  0  0
   11.2640  -10.2900    0.0000 O   0  0  0  0  0  0  0  0  0  0  0  0
   11.4598  -11.7771    0.0000 C   0  0  0  0  0  0  0  0  0  0  0  0
   10.2698  -12.6903    0.0000 O   0  0  0  0  0  0  0  0  0  0  0  0
   12.8456  -12.3512    0.0000 C   0  0  0  0  0  0  0  0  0  0  0  0
   13.0414  -13.8383    0.0000 C   0  0  0  0  0  0  0  0  0  0  0  0
   14.4272  -14.4124    0.0000 C   0  0  0  0  0  0  0  0  0  0  0  0
   11.8514  -14.7515    0.0000 C   0  0  0  0  0  0  0  0  0  0  0  0
    8.6881  -10.6291    0.0000 C   0  0  0  0  0  0  0  0  0  0  0  0
    8.8839  -12.1163    0.0000 C   0  0  0  0  0  0  0  0  0  0  0  0
    7.3023  -10.0551    0.0000 O   0  0  0  0  0  0  0  0  0  0  0  0
    4.1391   -5.9327    0.0000 C   0  0  0  0  0  0  0  0  0  0  0  0
    2.9491   -6.8458    0.0000 N   0  0  0  0  0  0  0  0  0  0  0  0
    1.8953   -6.5536    0.0000 C   0  0  0  0  0  0  0  0  0  0  0  0
    3.1449   -8.3330    0.0000 C   0  0  0  0  0  0  0  0  0  0  0  0
    3.9433   -4.4455    0.0000 C   0  0  0  0  0  0  0  0  0  0  0  0
    2.5575   -3.8715    0.0000 O   0  0  0  0  0  0  0  0  0  0  0  0
    1.3675   -4.7846    0.0000 C   0  0  0  0  0  0  0  0  0  0  0  0
    1.3770   -5.8781    0.0000 C   0  0  0  0  0  0  0  0  0  0  0  0
   -0.1161   -4.5630    0.0000 O   0  0  0  0  0  0  0  0  0  0  0  0
    2.7184   -2.7184    0.0000 C   0  0  0  0  0  0  0  0  0  0  0  0
    3.7790   -3.7790    0.0000 C   0  0  0  0  0  0  0  0  0  0  0  0
    3.3908   -5.2279    0.0000 C   0  0  0  0  0  0  0  0  0  0  0  0
    4.1633   -6.5137    0.0000 O   0  0  0  0  0  0  0  0  0  0  0  0
    1.4712   -3.5517    0.0000 C   0  0  0  0  0  0  0  0  0  0  0  0
   -0.0000   -3.8444    0.0000 C   0  0  0  0  0  0  0  0  0  0  0  0
   -0.0000   -5.3444    0.0000 C   0  0  0  0  0  0  0  0  0  0  0  0
   -1.4712   -3.5517    0.0000 C   0  0  0  0  0  0  0  0  0  0  0  0
   -2.0452   -4.9376    0.0000 O   0  0  0  0  0  0  0  0  0  0  0  0
   -3.5324   -5.1333    0.0000 C   0  0  0  0  0  0  0  0  0  0  0  0
   -4.1064   -6.5192    0.0000 C   0  0  0  0  0  0  0  0  0  0  0  0
   -4.4455   -3.9433    0.0000 O   0  0  0  0  0  0  0  0  0  0  0  0
   -2.7184   -2.7184    0.0000 C   0  0  0  0  0  0  0  0  0  0  0  0
   -3.5517   -1.4712    0.0000 C   0  0  0  0  0  0  0  0  0  0  0  0
   -3.8444    0.0000    0.0000 C   0  0  0  0  0  0  0  0  0  0  0  0
   -3.5517    1.4712    0.0000 C   0  0  0  0  0  0  0  0  0  0  0  0
   -2.7184    2.7184    0.0000 C   0  0  0  0  0  0  0  0  0  0  0  0
   -1.4712    3.5517    0.0000 C   0  0  0  0  0  0  0  0  0  0  0  0
   -2.0452    4.9376    0.0000 C   0  0  0  0  0  0  0  0  0  0  0  0
    0.0000    3.8444    0.0000 O   0  0  0  0  0  0  0  0  0  0  0  0
    1.4712    3.5517    0.0000 C   0  0  0  0  0  0  0  0  0  0  0  0
    2.0452    4.9376    0.0000 O   0  0  0  0  0  0  0  0  0  0  0  0
    2.7184    2.7184    0.0000 C   0  0  0  0  0  0  0  0  0  0  0  0
    3.5517    1.4712    0.0000 C   0  0  0  0  0  0  0  0  0  0  0  0
    4.9376    2.0452    0.0000 O   0  0  0  0  0  0  0  0  0  0  0  0
    6.1276    1.1321    0.0000 C   0  0  0  0  0  0  0  0  0  0  0  0
    7.5134    1.7061    0.0000 C   0  0  0  0  0  0  0  0  0  0  0  0
    6.2975   -0.3583    0.0000 O   0  0  0  0  0  0  0  0  0  0  0  0
  1  2  1  0
  3  2  1  6
  3  4  1  0
  4  5  1  1
  6  5  1  6
  6  7  1  0
  7  8  1  0
  8  9  1  6
  8 10  1  0
 10 11  1  1
 12 11  1  1
 12 13  1  0
 13 14  1  0
 14 15  1  6
 14 16  1  0
 14 17  1  0
 17 18  1  1
 18 19  1  0
 19 20  2  0
 19 21  1  0
 21 22  1  0
 22 23  1  0
 22 24  1  0
 17 25  1  0
 25 26  1  6
 25 27  1  0
 10 28  1  0
 28 29  1  6
 29 30  1  0
 29 31  1  0
 28 32  1  0
 32 33  1  1
 33 34  1  0
 34 35  1  0
 34 36  2  0
  4 37  1  0
 37 38  1  1
 38 39  1  0
 39 40  2  0
 37 41  1  0
 41 42  1  0
 42 43  1  1
 42 44  1  0
 44 45  1  1
 45 46  1  0
 46 47  1  0
 46 48  2  0
 44 49  1  0
 49 50  2  0
 50 51  1  0
 51 52  2  0
 52 53  1  0
 53 54  1  0
 54 55  1  1
 54 56  1  0
 56 57  1  0
 57 58  2  0
 57 59  1  0
 59 60  1  0
 60 61  1  1
 61 62  1  0
 62 63  1  0
 62 64  2  0
 60  3  1  0
 32  6  1  0
 27 12  1  0
M  END
>  <ChEMBL_IDs>  (25) 
CHEMBL3251870

>  <target_organism>  (25) 
Homo sapiens

>  <target_molecule_pref_name>  (25) 
None

>  <# Known Targets>  (25) 
1.0

>  <Known Targets>  (25) 
CHEMBL612545

>  <smiles>  (25) 
CO[C@@H]1[C@@H](O[C@@H]2O[C@H](C)[C@@H](O[C@H]3C[C@@](C)(O)[C@@H](OC(=O)CC(C)C)[C@H](C)O3)[C@H](N(C)C)[C@H]2OC(C)=O)[C@@H](CC=O)C[C@@H](C)[C@@H](OC(C)=O)/C=C/C=C/C[C@@H](C)OC(=O)C[C@H]1OC(C)=O

$$$$

     RDKit          2D

 60 62  0  0  0  0  0  0  0  0999 V2000
   18.4042   -4.8111    0.0000 C   0  0  0  0  0  0  0  0  0  0  0  0
   17.0184   -4.2371    0.0000 C   0  0  0  0  0  0  0  0  0  0  0  0
   16.8226   -2.7499    0.0000 C   0  0  0  0  0  0  0  0  0  0  0  0
   15.4367   -2.1759    0.0000 C   0  0  0  0  0  0  0  0  0  0  0  0
   14.2467   -3.0890    0.0000 O   0  0  0  0  0  0  0  0  0  0  0  0
   15.2410   -0.6887    0.0000 O   0  0  0  0  0  0  0  0  0  0  0  0
   13.8551   -0.1147    0.0000 C   0  0  0  0  0  0  0  0  0  0  0  0
   12.6651   -1.0279    0.0000 C   0  0  0  0  0  0  0  0  0  0  0  0
   12.8609   -2.5150    0.0000 C   0  0  0  0  0  0  0  0  0  0  0  0
   11.2793   -0.4538    0.0000 O   0  0  0  0  0  0  0  0  0  0  0  0
   11.0835    1.0333    0.0000 C   0  0  0  0  0  0  0  0  0  0  0  0
    9.6977    1.6074    0.0000 O   0  0  0  0  0  0  0  0  0  0  0  0
    8.5076    0.6942    0.0000 C   0  0  0  0  0  0  0  0  0  0  0  0
    7.1218    1.2682    0.0000 C   0  0  0  0  0  0  0  0  0  0  0  0
    6.9260    2.7554    0.0000 N   0  0  0  0  0  0  0  0  0  0  0  0
    8.1161    3.6686    0.0000 C   0  0  0  0  0  0  0  0  0  0  0  0
    5.5402    3.3294    0.0000 C   0  0  0  0  0  0  0  0  0  0  0  0
    5.9318    0.3551    0.0000 C   0  0  0  0  0  0  0  0  0  0  0  0
    4.5460    0.9291    0.0000 O   0  0  0  0  0  0  0  0  0  0  0  0
    3.3559    0.0160    0.0000 C   0  0  0  0  0  0  0  0  0  0  0  0
    1.9701    0.5900    0.0000 C   0  0  0  0  0  0  0  0  0  0  0  0
    3.5517   -1.4712    0.0000 O   0  0  0  0  0  0  0  0  0  0  0  0
    6.1276   -1.1321    0.0000 C   0  0  0  0  0  0  0  0  0  0  0  0
    4.9376   -2.0452    0.0000 O   0  0  0  0  0  0  0  0  0  0  0  0
    5.1333   -3.5324    0.0000 C   0  0  0  0  0  0  0  0  0  0  0  0
    6.6301   -3.6305    0.0000 C   0  0  0  0  0  0  0  0  0  0  0  0
    7.0184   -2.1816    0.0000 O   0  0  0  0  0  0  0  0  0  0  0  0
    8.4673   -1.7934    0.0000 C   0  0  0  0  0  0  0  0  0  0  0  0
    7.9754   -4.2939    0.0000 C   0  0  0  0  0  0  0  0  0  0  0  0
    8.8886   -3.1039    0.0000 O   0  0  0  0  0  0  0  0  0  0  0  0
    8.9645   -5.4217    0.0000 C   0  0  0  0  0  0  0  0  0  0  0  0
    9.4466   -6.8421    0.0000 C   0  0  0  0  0  0  0  0  0  0  0  0
   10.9338   -6.6463    0.0000 O   0  0  0  0  0  0  0  0  0  0  0  0
    9.3485   -8.3389    0.0000 O   0  0  0  0  0  0  0  0  0  0  0  0
    8.6851   -9.6842    0.0000 C   0  0  0  0  0  0  0  0  0  0  0  0
    9.8751  -10.5973    0.0000 C   0  0  0  0  0  0  0  0  0  0  0  0
    7.5573  -10.6732    0.0000 C   0  0  0  0  0  0  0  0  0  0  0  0
    6.1369  -11.1553    0.0000 C   0  0  0  0  0  0  0  0  0  0  0  0
    4.6401  -11.0572    0.0000 C   0  0  0  0  0  0  0  0  0  0  0  0
    3.2948  -10.3938    0.0000 C   0  0  0  0  0  0  0  0  0  0  0  0
    2.3058   -9.2660    0.0000 C   0  0  0  0  0  0  0  0  0  0  0  0
    1.8237   -7.8456    0.0000 C   0  0  0  0  0  0  0  0  0  0  0  0
    0.3365   -8.0414    0.0000 O   0  0  0  0  0  0  0  0  0  0  0  0
   -0.2375   -9.4273    0.0000 C   0  0  0  0  0  0  0  0  0  0  0  0
   -1.7247   -9.6230    0.0000 C   0  0  0  0  0  0  0  0  0  0  0  0
    0.6756  -10.6173    0.0000 O   0  0  0  0  0  0  0  0  0  0  0  0
    1.9218   -6.3489    0.0000 C   0  0  0  0  0  0  0  0  0  0  0  0
    0.4729   -5.9606    0.0000 C   0  0  0  0  0  0  0  0  0  0  0  0
    2.5852   -5.0035    0.0000 C   0  0  0  0  0  0  0  0  0  0  0  0
    3.7130   -4.0145    0.0000 C   0  0  0  0  0  0  0  0  0  0  0  0
    2.9630   -2.7155    0.0000 C   0  0  0  0  0  0  0  0  0  0  0  0
    1.4630   -2.7155    0.0000 C   0  0  0  0  0  0  0  0  0  0  0  0
    0.7130   -1.4165    0.0000 O   0  0  0  0  0  0  0  0  0  0  0  0
    7.5134   -1.7061    0.0000 O   0  0  0  0  0  0  0  0  0  0  0  0
    8.7034   -0.7929    0.0000 C   0  0  0  0  0  0  0  0  0  0  0  0
   10.0893   -1.3670    0.0000 C   0  0  0  0  0  0  0  0  0  0  0  0
   12.2735    1.9465    0.0000 C   0  0  0  0  0  0  0  0  0  0  0  0
   13.6593    1.3725    0.0000 C   0  0  0  0  0  0  0  0  0  0  0  0
   13.9840    2.8369    0.0000 C   0  0  0  0  0  0  0  0  0  0  0  0
   15.1579    1.3070    0.0000 O   0  0  0  0  0  0  0  0  0  0  0  0
  1  2  1  0
  2  3  1  0
  3  4  1  0
  4  5  2  0
  4  6  1  0
  7  6  1  1
  7  8  1  0
  8  9  1  6
  8 10  1  0
 10 11  1  0
 11 12  1  1
 13 12  1  6
 13 14  1  0
 14 15  1  1
 15 16  1  0
 15 17  1  0
 14 18  1  0
 18 19  1  6
 19 20  1  0
 20 21  1  0
 20 22  2  0
 18 23  1  0
 23 24  1  1
 25 24  1  6
 25 26  1  0
 26 27  1  1
 27 28  1  0
 26 29  1  0
 29 30  1  6
 29 31  1  0
 31 32  1  0
 32 33  2  0
 32 34  1  0
 34 35  1  0
 35 36  1  6
 35 37  1  0
 37 38  1  0
 38 39  2  0
 39 40  1  0
 40 41  2  0
 41 42  1  0
 42 43  1  6
 43 44  1  0
 44 45  1  0
 44 46  2  0
 42 47  1  0
 47 48  1  6
 47 49  1  0
 49 50  1  0
 50 51  1  6
 51 52  1  0
 52 53  2  0
 23 54  1  0
 54 55  1  0
 55 56  1  1
 11 57  1  0
 57 58  1  0
 58 59  1  6
 58 60  1  0
 58  7  1  0
 55 13  1  0
 50 25  1  0
M  END
>  <ChEMBL_IDs>  (26) 
CHEMBL3251874

>  <target_organism>  (26) 
Homo sapiens

>  <target_molecule_pref_name>  (26) 
None

>  <# Known Targets>  (26) 
1.0

>  <Known Targets>  (26) 
CHEMBL612545

>  <smiles>  (26) 
CCCC(=O)O[C@H]1[C@H](C)O[C@@H](O[C@H]2[C@H](N(C)C)[C@@H](OC(C)=O)[C@H](O[C@@H]3[C@@H](OC)[C@H](O)CC(=O)O[C@H](C)C/C=C/C=C/[C@H](OC(C)=O)[C@H](C)C[C@@H]3CC=O)O[C@@H]2C)C[C@@]1(C)O

$$$$

     RDKit          2D

 60 62  0  0  0  0  0  0  0  0999 V2000
    5.6205   -1.2990    0.0000 C   0  0  0  0  0  0  0  0  0  0  0  0
    4.8705    0.0000    0.0000 C   0  0  0  0  0  0  0  0  0  0  0  0
    3.3705    0.0000    0.0000 C   0  0  0  0  0  0  0  0  0  0  0  0
    3.0367   -1.4624    0.0000 O   0  0  0  0  0  0  0  0  0  0  0  0
    2.1015   -2.6351    0.0000 C   0  0  0  0  0  0  0  0  0  0  0  0
    3.0367   -3.8079    0.0000 O   0  0  0  0  0  0  0  0  0  0  0  0
    0.7500   -3.2860    0.0000 C   0  0  0  0  0  0  0  0  0  0  0  0
    1.3600   -4.4903    0.0000 C   0  0  0  0  0  0  0  0  0  0  0  0
   -0.7500   -3.2860    0.0000 C   0  0  0  0  0  0  0  0  0  0  0  0
   -1.0838   -4.7484    0.0000 O   0  0  0  0  0  0  0  0  0  0  0  0
    0.0158   -5.7686    0.0000 C   0  0  0  0  0  0  0  0  0  0  0  0
   -0.3180   -7.2310    0.0000 C   0  0  0  0  0  0  0  0  0  0  0  0
    0.7816   -8.2513    0.0000 C   0  0  0  0  0  0  0  0  0  0  0  0
    1.4659   -9.5861    0.0000 C   0  0  0  0  0  0  0  0  0  0  0  0
   -0.4141   -9.1570    0.0000 O   0  0  0  0  0  0  0  0  0  0  0  0
   -0.2276  -10.6453    0.0000 C   0  0  0  0  0  0  0  0  0  0  0  0
    2.2150   -7.8091    0.0000 C   0  0  0  0  0  0  0  0  0  0  0  0
    3.3145   -8.8294    0.0000 O   0  0  0  0  0  0  0  0  0  0  0  0
    2.5487   -6.3467    0.0000 C   0  0  0  0  0  0  0  0  0  0  0  0
    3.9821   -5.9046    0.0000 C   0  0  0  0  0  0  0  0  0  0  0  0
    1.4492   -5.3265    0.0000 O   0  0  0  0  0  0  0  0  0  0  0  0
   -2.1015   -2.6351    0.0000 C   0  0  0  0  0  0  0  0  0  0  0  0
   -3.0367   -3.8079    0.0000 C   0  0  0  0  0  0  0  0  0  0  0  0
   -3.0367   -1.4624    0.0000 C   0  0  0  0  0  0  0  0  0  0  0  0
   -4.3881   -2.1132    0.0000 O   0  0  0  0  0  0  0  0  0  0  0  0
   -5.6275   -1.2682    0.0000 C   0  0  0  0  0  0  0  0  0  0  0  0
   -5.5154    0.2276    0.0000 O   0  0  0  0  0  0  0  0  0  0  0  0
   -6.7548    1.0725    0.0000 C   0  0  0  0  0  0  0  0  0  0  0  0
   -6.6427    2.5684    0.0000 C   0  0  0  0  0  0  0  0  0  0  0  0
   -8.1062    0.4217    0.0000 C   0  0  0  0  0  0  0  0  0  0  0  0
   -8.2183   -1.0741    0.0000 C   0  0  0  0  0  0  0  0  0  0  0  0
   -9.5698   -1.7249    0.0000 N   0  0  0  0  0  0  0  0  0  0  0  0
  -10.8091   -0.8799    0.0000 C   0  0  0  0  0  0  0  0  0  0  0  0
   -9.6819   -3.2207    0.0000 C   0  0  0  0  0  0  0  0  0  0  0  0
  -11.0333   -3.8715    0.0000 C   0  0  0  0  0  0  0  0  0  0  0  0
   -8.4425   -4.0657    0.0000 C   0  0  0  0  0  0  0  0  0  0  0  0
   -6.9790   -1.9191    0.0000 C   0  0  0  0  0  0  0  0  0  0  0  0
   -7.0910   -3.4149    0.0000 O   0  0  0  0  0  0  0  0  0  0  0  0
   -3.3705    0.0000    0.0000 C   0  0  0  0  0  0  0  0  0  0  0  0
   -4.6098   -0.8450    0.0000 C   0  0  0  0  0  0  0  0  0  0  0  0
   -4.6098    0.8450    0.0000 O   0  0  0  0  0  0  0  0  0  0  0  0
   -3.0367    1.4624    0.0000 C   0  0  0  0  0  0  0  0  0  0  0  0
   -2.1015    2.6351    0.0000 C   0  0  0  0  0  0  0  0  0  0  0  0
   -3.0367    3.8079    0.0000 C   0  0  0  0  0  0  0  0  0  0  0  0
   -0.7500    3.2860    0.0000 C   0  0  0  0  0  0  0  0  0  0  0  0
   -1.0838    4.7484    0.0000 O   0  0  0  0  0  0  0  0  0  0  0  0
    0.0158    5.7686    0.0000 C   0  0  0  0  0  0  0  0  0  0  0  0
   -0.3180    7.2310    0.0000 C   0  0  0  0  0  0  0  0  0  0  0  0
    0.7816    8.2513    0.0000 N   0  0  0  0  0  0  0  0  0  0  0  0
    0.4478    9.7137    0.0000 C   0  0  0  0  0  0  0  0  0  0  0  0
   -0.9855   10.1558    0.0000 O   0  0  0  0  0  0  0  0  0  0  0  0
    1.5474   10.7339    0.0000 O   0  0  0  0  0  0  0  0  0  0  0  0
    1.2136   12.1963    0.0000 C   0  0  0  0  0  0  0  0  0  0  0  0
    0.7500    3.2860    0.0000 C   0  0  0  0  0  0  0  0  0  0  0  0
    1.0838    4.7484    0.0000 C   0  0  0  0  0  0  0  0  0  0  0  0
    2.1015    2.6351    0.0000 C   0  0  0  0  0  0  0  0  0  0  0  0
    3.0367    3.8079    0.0000 O   0  0  0  0  0  0  0  0  0  0  0  0
    3.0367    1.4624    0.0000 C   0  0  0  0  0  0  0  0  0  0  0  0
    3.7867    2.7614    0.0000 C   0  0  0  0  0  0  0  0  0  0  0  0
    4.5199    1.2388    0.0000 O   0  0  0  0  0  0  0  0  0  0  0  0
  1  2  1  0
  3  2  1  1
  3  4  1  0
  4  5  1  0
  5  6  2  0
  5  7  1  0
  7  8  1  6
  7  9  1  0
  9 10  1  1
 11 10  1  6
 11 12  1  0
 12 13  1  0
 13 14  1  1
 13 15  1  0
 15 16  1  0
 13 17  1  0
 17 18  1  6
 17 19  1  0
 19 20  1  1
 19 21  1  0
  9 22  1  0
 22 23  1  6
 22 24  1  0
 24 25  1  1
 26 25  1  1
 26 27  1  0
 27 28  1  0
 28 29  1  1
 28 30  1  0
 30 31  1  0
 31 32  1  1
 32 33  1  0
 32 34  1  0
 34 35  1  0
 34 36  1  0
 31 37  1  0
 37 38  1  6
 24 39  1  0
 39 40  1  1
 39 41  1  0
 39 42  1  0
 42 43  1  0
 43 44  1  1
 43 45  1  0
 45 46  1  6
 46 47  1  0
 47 48  1  0
 48 49  1  0
 49 50  1  0
 50 51  2  0
 50 52  1  0
 52 53  1  0
 45 54  1  0
 54 55  1  6
 54 56  1  0
 56 57  1  1
 56 58  1  0
 58 59  1  1
 58 60  1  0
 58  3  1  0
 21 11  1  0
 37 26  1  0
M  END
>  <ChEMBL_IDs>  (27) 
CHEMBL1269439

>  <target_organism>  (27) 
nan

>  <target_molecule_pref_name>  (27) 
None

>  <# Known Targets>  (27) 
1.0

>  <Known Targets>  (27) 
CHEMBL3879801

>  <smiles>  (27) 
CC[C@H]1OC(=O)[C@H](C)[C@@H](O[C@H]2C[C@@](C)(OC)[C@@H](O)[C@H](C)O2)[C@H](C)[C@@H](O[C@@H]2O[C@H](C)C[C@H](N(C)C(C)C)[C@H]2O)[C@](C)(O)C[C@@H](C)[C@H](OCCNC(=O)OC)[C@H](C)[C@@H](O)[C@]1(C)O

$$$$

     RDKit          2D

 60 62  0  0  0  0  0  0  0  0999 V2000
    5.6205   -1.2990    0.0000 C   0  0  0  0  0  0  0  0  0  0  0  0
    4.8705    0.0000    0.0000 C   0  0  0  0  0  0  0  0  0  0  0  0
    3.3705    0.0000    0.0000 C   0  0  0  0  0  0  0  0  0  0  0  0
    3.0367   -1.4624    0.0000 O   0  0  0  0  0  0  0  0  0  0  0  0
    2.1015   -2.6351    0.0000 C   0  0  0  0  0  0  0  0  0  0  0  0
    3.0367   -3.8079    0.0000 O   0  0  0  0  0  0  0  0  0  0  0  0
    0.7500   -3.2860    0.0000 C   0  0  0  0  0  0  0  0  0  0  0  0
    1.3600   -4.4903    0.0000 C   0  0  0  0  0  0  0  0  0  0  0  0
   -0.7500   -3.2860    0.0000 C   0  0  0  0  0  0  0  0  0  0  0  0
   -1.0838   -4.7484    0.0000 O   0  0  0  0  0  0  0  0  0  0  0  0
    0.0158   -5.7686    0.0000 C   0  0  0  0  0  0  0  0  0  0  0  0
   -0.3180   -7.2310    0.0000 C   0  0  0  0  0  0  0  0  0  0  0  0
    0.7816   -8.2513    0.0000 C   0  0  0  0  0  0  0  0  0  0  0  0
    1.4659   -9.5861    0.0000 C   0  0  0  0  0  0  0  0  0  0  0  0
   -0.4141   -9.1570    0.0000 O   0  0  0  0  0  0  0  0  0  0  0  0
   -0.2276  -10.6453    0.0000 C   0  0  0  0  0  0  0  0  0  0  0  0
    2.2150   -7.8091    0.0000 C   0  0  0  0  0  0  0  0  0  0  0  0
    3.3145   -8.8294    0.0000 O   0  0  0  0  0  0  0  0  0  0  0  0
    2.5487   -6.3467    0.0000 C   0  0  0  0  0  0  0  0  0  0  0  0
    3.9821   -5.9046    0.0000 C   0  0  0  0  0  0  0  0  0  0  0  0
    1.4492   -5.3265    0.0000 O   0  0  0  0  0  0  0  0  0  0  0  0
   -2.1015   -2.6351    0.0000 C   0  0  0  0  0  0  0  0  0  0  0  0
   -3.0367   -3.8079    0.0000 C   0  0  0  0  0  0  0  0  0  0  0  0
   -3.0367   -1.4624    0.0000 C   0  0  0  0  0  0  0  0  0  0  0  0
   -4.3881   -2.1132    0.0000 O   0  0  0  0  0  0  0  0  0  0  0  0
   -5.6275   -1.2682    0.0000 C   0  0  0  0  0  0  0  0  0  0  0  0
   -5.5154    0.2276    0.0000 O   0  0  0  0  0  0  0  0  0  0  0  0
   -6.7548    1.0725    0.0000 C   0  0  0  0  0  0  0  0  0  0  0  0
   -6.6427    2.5684    0.0000 C   0  0  0  0  0  0  0  0  0  0  0  0
   -8.1062    0.4217    0.0000 C   0  0  0  0  0  0  0  0  0  0  0  0
   -8.2183   -1.0741    0.0000 C   0  0  0  0  0  0  0  0  0  0  0  0
   -9.5698   -1.7249    0.0000 N   0  0  0  0  0  0  0  0  0  0  0  0
  -10.8091   -0.8799    0.0000 C   0  0  0  0  0  0  0  0  0  0  0  0
   -9.6819   -3.2207    0.0000 C   0  0  0  0  0  0  0  0  0  0  0  0
  -11.0333   -3.8715    0.0000 C   0  0  0  0  0  0  0  0  0  0  0  0
   -8.4425   -4.0657    0.0000 C   0  0  0  0  0  0  0  0  0  0  0  0
   -6.9790   -1.9191    0.0000 C   0  0  0  0  0  0  0  0  0  0  0  0
   -7.0910   -3.4149    0.0000 O   0  0  0  0  0  0  0  0  0  0  0  0
   -3.3705    0.0000    0.0000 C   0  0  0  0  0  0  0  0  0  0  0  0
   -4.6098   -0.8450    0.0000 C   0  0  0  0  0  0  0  0  0  0  0  0
   -4.6098    0.8450    0.0000 O   0  0  0  0  0  0  0  0  0  0  0  0
   -3.0367    1.4624    0.0000 C   0  0  0  0  0  0  0  0  0  0  0  0
   -2.1015    2.6351    0.0000 C   0  0  0  0  0  0  0  0  0  0  0  0
   -3.0367    3.8079    0.0000 C   0  0  0  0  0  0  0  0  0  0  0  0
   -0.7500    3.2860    0.0000 C   0  0  0  0  0  0  0  0  0  0  0  0
   -1.0838    4.7484    0.0000 O   0  0  0  0  0  0  0  0  0  0  0  0
    0.0158    5.7686    0.0000 C   0  0  0  0  0  0  0  0  0  0  0  0
   -0.3180    7.2310    0.0000 C   0  0  0  0  0  0  0  0  0  0  0  0
   -1.7513    7.6731    0.0000 O   0  0  0  0  0  0  0  0  0  0  0  0
    0.7816    8.2513    0.0000 N   0  0  0  0  0  0  0  0  0  0  0  0
    0.4478    9.7137    0.0000 C   0  0  0  0  0  0  0  0  0  0  0  0
    1.5474   10.7339    0.0000 C   0  0  0  0  0  0  0  0  0  0  0  0
    1.2136   12.1963    0.0000 O   0  0  0  0  0  0  0  0  0  0  0  0
    0.7500    3.2860    0.0000 C   0  0  0  0  0  0  0  0  0  0  0  0
    1.0838    4.7484    0.0000 C   0  0  0  0  0  0  0  0  0  0  0  0
    2.1015    2.6351    0.0000 C   0  0  0  0  0  0  0  0  0  0  0  0
    3.0367    3.8079    0.0000 O   0  0  0  0  0  0  0  0  0  0  0  0
    3.0367    1.4624    0.0000 C   0  0  0  0  0  0  0  0  0  0  0  0
    3.7867    2.7614    0.0000 C   0  0  0  0  0  0  0  0  0  0  0  0
    4.5199    1.2388    0.0000 O   0  0  0  0  0  0  0  0  0  0  0  0
  1  2  1  0
  3  2  1  1
  3  4  1  0
  4  5  1  0
  5  6  2  0
  5  7  1  0
  7  8  1  6
  7  9  1  0
  9 10  1  1
 11 10  1  6
 11 12  1  0
 12 13  1  0
 13 14  1  1
 13 15  1  0
 15 16  1  0
 13 17  1  0
 17 18  1  6
 17 19  1  0
 19 20  1  1
 19 21  1  0
  9 22  1  0
 22 23  1  6
 22 24  1  0
 24 25  1  1
 26 25  1  1
 26 27  1  0
 27 28  1  0
 28 29  1  1
 28 30  1  0
 30 31  1  0
 31 32  1  1
 32 33  1  0
 32 34  1  0
 34 35  1  0
 34 36  1  0
 31 37  1  0
 37 38  1  6
 24 39  1  0
 39 40  1  1
 39 41  1  0
 39 42  1  0
 42 43  1  0
 43 44  1  1
 43 45  1  0
 45 46  1  6
 46 47  1  0
 47 48  1  0
 48 49  2  0
 48 50  1  0
 50 51  1  0
 51 52  1  0
 52 53  1  0
 45 54  1  0
 54 55  1  6
 54 56  1  0
 56 57  1  1
 56 58  1  0
 58 59  1  1
 58 60  1  0
 58  3  1  0
 21 11  1  0
 37 26  1  0
M  END
>  <ChEMBL_IDs>  (28) 
CHEMBL582871

>  <target_organism>  (28) 
Rattus norvegicus

>  <target_molecule_pref_name>  (28) 
None

>  <# Known Targets>  (28) 
1.0

>  <Known Targets>  (28) 
CHEMBL5306

>  <smiles>  (28) 
CC[C@H]1OC(=O)[C@H](C)[C@@H](O[C@H]2C[C@@](C)(OC)[C@@H](O)[C@H](C)O2)[C@H](C)[C@@H](O[C@@H]2O[C@H](C)C[C@H](N(C)C(C)C)[C@H]2O)[C@](C)(O)C[C@@H](C)[C@H](OCC(=O)NCCO)[C@H](C)[C@@H](O)[C@]1(C)O

$$$$

     RDKit          2D

 59 61  0  0  0  0  0  0  0  0999 V2000
    5.6205   -1.2990    0.0000 C   0  0  0  0  0  0  0  0  0  0  0  0
    4.8705    0.0000    0.0000 C   0  0  0  0  0  0  0  0  0  0  0  0
    3.3705    0.0000    0.0000 C   0  0  0  0  0  0  0  0  0  0  0  0
    3.0367   -1.4624    0.0000 O   0  0  0  0  0  0  0  0  0  0  0  0
    2.1015   -2.6351    0.0000 C   0  0  0  0  0  0  0  0  0  0  0  0
    3.0367   -3.8079    0.0000 O   0  0  0  0  0  0  0  0  0  0  0  0
    0.7500   -3.2860    0.0000 C   0  0  0  0  0  0  0  0  0  0  0  0
    1.3600   -4.4903    0.0000 C   0  0  0  0  0  0  0  0  0  0  0  0
   -0.7500   -3.2860    0.0000 C   0  0  0  0  0  0  0  0  0  0  0  0
   -1.0838   -4.7484    0.0000 O   0  0  0  0  0  0  0  0  0  0  0  0
    0.0158   -5.7686    0.0000 C   0  0  0  0  0  0  0  0  0  0  0  0
   -0.3180   -7.2310    0.0000 C   0  0  0  0  0  0  0  0  0  0  0  0
    0.7816   -8.2513    0.0000 C   0  0  0  0  0  0  0  0  0  0  0  0
    1.4659   -9.5861    0.0000 C   0  0  0  0  0  0  0  0  0  0  0  0
   -0.4141   -9.1570    0.0000 O   0  0  0  0  0  0  0  0  0  0  0  0
   -0.2276  -10.6453    0.0000 C   0  0  0  0  0  0  0  0  0  0  0  0
    2.2150   -7.8091    0.0000 C   0  0  0  0  0  0  0  0  0  0  0  0
    3.3145   -8.8294    0.0000 O   0  0  0  0  0  0  0  0  0  0  0  0
    2.5487   -6.3467    0.0000 C   0  0  0  0  0  0  0  0  0  0  0  0
    3.9821   -5.9046    0.0000 C   0  0  0  0  0  0  0  0  0  0  0  0
    1.4492   -5.3265    0.0000 O   0  0  0  0  0  0  0  0  0  0  0  0
   -2.1015   -2.6351    0.0000 C   0  0  0  0  0  0  0  0  0  0  0  0
   -3.0367   -3.8079    0.0000 C   0  0  0  0  0  0  0  0  0  0  0  0
   -3.0367   -1.4624    0.0000 C   0  0  0  0  0  0  0  0  0  0  0  0
   -4.3881   -2.1132    0.0000 O   0  0  0  0  0  0  0  0  0  0  0  0
   -5.6275   -1.2682    0.0000 C   0  0  0  0  0  0  0  0  0  0  0  0
   -5.5154    0.2276    0.0000 O   0  0  0  0  0  0  0  0  0  0  0  0
   -6.7548    1.0725    0.0000 C   0  0  0  0  0  0  0  0  0  0  0  0
   -6.6427    2.5684    0.0000 C   0  0  0  0  0  0  0  0  0  0  0  0
   -8.1062    0.4217    0.0000 C   0  0  0  0  0  0  0  0  0  0  0  0
   -8.2183   -1.0741    0.0000 C   0  0  0  0  0  0  0  0  0  0  0  0
   -9.5698   -1.7249    0.0000 N   0  0  0  0  0  0  0  0  0  0  0  0
  -10.8091   -0.8799    0.0000 C   0  0  0  0  0  0  0  0  0  0  0  0
   -9.6819   -3.2207    0.0000 C   0  0  0  0  0  0  0  0  0  0  0  0
  -11.0333   -3.8715    0.0000 C   0  0  0  0  0  0  0  0  0  0  0  0
   -8.4425   -4.0657    0.0000 C   0  0  0  0  0  0  0  0  0  0  0  0
   -6.9790   -1.9191    0.0000 C   0  0  0  0  0  0  0  0  0  0  0  0
   -7.0910   -3.4149    0.0000 O   0  0  0  0  0  0  0  0  0  0  0  0
   -3.3705    0.0000    0.0000 C   0  0  0  0  0  0  0  0  0  0  0  0
   -4.6098   -0.8450    0.0000 C   0  0  0  0  0  0  0  0  0  0  0  0
   -4.6098    0.8450    0.0000 O   0  0  0  0  0  0  0  0  0  0  0  0
   -3.0367    1.4624    0.0000 C   0  0  0  0  0  0  0  0  0  0  0  0
   -2.1015    2.6351    0.0000 C   0  0  0  0  0  0  0  0  0  0  0  0
   -3.0367    3.8079    0.0000 C   0  0  0  0  0  0  0  0  0  0  0  0
   -0.7500    3.2860    0.0000 C   0  0  0  0  0  0  0  0  0  0  0  0
   -1.0838    4.7484    0.0000 O   0  0  0  0  0  0  0  0  0  0  0  0
    0.0158    5.7686    0.0000 C   0  0  0  0  0  0  0  0  0  0  0  0
   -0.3180    7.2310    0.0000 C   0  0  0  0  0  0  0  0  0  0  0  0
   -1.7513    7.6731    0.0000 O   0  0  0  0  0  0  0  0  0  0  0  0
    0.7816    8.2513    0.0000 N   0  0  0  0  0  0  0  0  0  0  0  0
    0.4478    9.7137    0.0000 C   0  0  0  0  0  0  0  0  0  0  0  0
    2.2150    7.8091    0.0000 C   0  0  0  0  0  0  0  0  0  0  0  0
    0.7500    3.2860    0.0000 C   0  0  0  0  0  0  0  0  0  0  0  0
    1.0838    4.7484    0.0000 C   0  0  0  0  0  0  0  0  0  0  0  0
    2.1015    2.6351    0.0000 C   0  0  0  0  0  0  0  0  0  0  0  0
    3.0367    3.8079    0.0000 O   0  0  0  0  0  0  0  0  0  0  0  0
    3.0367    1.4624    0.0000 C   0  0  0  0  0  0  0  0  0  0  0  0
    3.7867    2.7614    0.0000 C   0  0  0  0  0  0  0  0  0  0  0  0
    4.5199    1.2388    0.0000 O   0  0  0  0  0  0  0  0  0  0  0  0
  1  2  1  0
  3  2  1  1
  3  4  1  0
  4  5  1  0
  5  6  2  0
  5  7  1  0
  7  8  1  6
  7  9  1  0
  9 10  1  1
 11 10  1  6
 11 12  1  0
 12 13  1  0
 13 14  1  1
 13 15  1  0
 15 16  1  0
 13 17  1  0
 17 18  1  6
 17 19  1  0
 19 20  1  1
 19 21  1  0
  9 22  1  0
 22 23  1  6
 22 24  1  0
 24 25  1  1
 26 25  1  1
 26 27  1  0
 27 28  1  0
 28 29  1  1
 28 30  1  0
 30 31  1  0
 31 32  1  1
 32 33  1  0
 32 34  1  0
 34 35  1  0
 34 36  1  0
 31 37  1  0
 37 38  1  6
 24 39  1  0
 39 40  1  1
 39 41  1  0
 39 42  1  0
 42 43  1  0
 43 44  1  1
 43 45  1  0
 45 46  1  6
 46 47  1  0
 47 48  1  0
 48 49  2  0
 48 50  1  0
 50 51  1  0
 50 52  1  0
 45 53  1  0
 53 54  1  6
 53 55  1  0
 55 56  1  1
 55 57  1  0
 57 58  1  1
 57 59  1  0
 57  3  1  0
 21 11  1  0
 37 26  1  0
M  END
>  <ChEMBL_IDs>  (29) 
CHEMBL584551

>  <target_organism>  (29) 
Rattus norvegicus

>  <target_molecule_pref_name>  (29) 
None

>  <# Known Targets>  (29) 
1.0

>  <Known Targets>  (29) 
CHEMBL5306

>  <smiles>  (29) 
CC[C@H]1OC(=O)[C@H](C)[C@@H](O[C@H]2C[C@@](C)(OC)[C@@H](O)[C@H](C)O2)[C@H](C)[C@@H](O[C@@H]2O[C@H](C)C[C@H](N(C)C(C)C)[C@H]2O)[C@](C)(O)C[C@@H](C)[C@H](OCC(=O)N(C)C)[C@H](C)[C@@H](O)[C@]1(C)O

$$$$

     RDKit          2D

 59 61  0  0  0  0  0  0  0  0999 V2000
    5.6205   -1.2990    0.0000 C   0  0  0  0  0  0  0  0  0  0  0  0
    4.8705    0.0000    0.0000 C   0  0  0  0  0  0  0  0  0  0  0  0
    3.3705    0.0000    0.0000 C   0  0  0  0  0  0  0  0  0  0  0  0
    3.0367   -1.4624    0.0000 O   0  0  0  0  0  0  0  0  0  0  0  0
    2.1015   -2.6351    0.0000 C   0  0  0  0  0  0  0  0  0  0  0  0
    3.0367   -3.8079    0.0000 O   0  0  0  0  0  0  0  0  0  0  0  0
    0.7500   -3.2860    0.0000 C   0  0  0  0  0  0  0  0  0  0  0  0
    1.3600   -4.4903    0.0000 C   0  0  0  0  0  0  0  0  0  0  0  0
   -0.7500   -3.2860    0.0000 C   0  0  0  0  0  0  0  0  0  0  0  0
   -1.0838   -4.7484    0.0000 O   0  0  0  0  0  0  0  0  0  0  0  0
    0.0158   -5.7686    0.0000 C   0  0  0  0  0  0  0  0  0  0  0  0
   -0.3180   -7.2310    0.0000 C   0  0  0  0  0  0  0  0  0  0  0  0
    0.7816   -8.2513    0.0000 C   0  0  0  0  0  0  0  0  0  0  0  0
    1.4659   -9.5861    0.0000 C   0  0  0  0  0  0  0  0  0  0  0  0
   -0.4141   -9.1570    0.0000 O   0  0  0  0  0  0  0  0  0  0  0  0
   -0.2276  -10.6453    0.0000 C   0  0  0  0  0  0  0  0  0  0  0  0
    2.2150   -7.8091    0.0000 C   0  0  0  0  0  0  0  0  0  0  0  0
    3.3145   -8.8294    0.0000 O   0  0  0  0  0  0  0  0  0  0  0  0
    2.5487   -6.3467    0.0000 C   0  0  0  0  0  0  0  0  0  0  0  0
    3.9821   -5.9046    0.0000 C   0  0  0  0  0  0  0  0  0  0  0  0
    1.4492   -5.3265    0.0000 O   0  0  0  0  0  0  0  0  0  0  0  0
   -2.1015   -2.6351    0.0000 C   0  0  0  0  0  0  0  0  0  0  0  0
   -3.0367   -3.8079    0.0000 C   0  0  0  0  0  0  0  0  0  0  0  0
   -3.0367   -1.4624    0.0000 C   0  0  0  0  0  0  0  0  0  0  0  0
   -4.3881   -2.1132    0.0000 O   0  0  0  0  0  0  0  0  0  0  0  0
   -5.6275   -1.2682    0.0000 C   0  0  0  0  0  0  0  0  0  0  0  0
   -5.5154    0.2276    0.0000 O   0  0  0  0  0  0  0  0  0  0  0  0
   -6.7548    1.0725    0.0000 C   0  0  0  0  0  0  0  0  0  0  0  0
   -6.6427    2.5684    0.0000 C   0  0  0  0  0  0  0  0  0  0  0  0
   -8.1062    0.4217    0.0000 C   0  0  0  0  0  0  0  0  0  0  0  0
   -8.2183   -1.0741    0.0000 C   0  0  0  0  0  0  0  0  0  0  0  0
   -9.5698   -1.7249    0.0000 N   0  0  0  0  0  0  0  0  0  0  0  0
  -10.8091   -0.8799    0.0000 C   0  0  0  0  0  0  0  0  0  0  0  0
   -9.6819   -3.2207    0.0000 C   0  0  0  0  0  0  0  0  0  0  0  0
  -11.0333   -3.8715    0.0000 C   0  0  0  0  0  0  0  0  0  0  0  0
   -8.4425   -4.0657    0.0000 C   0  0  0  0  0  0  0  0  0  0  0  0
   -6.9790   -1.9191    0.0000 C   0  0  0  0  0  0  0  0  0  0  0  0
   -7.0910   -3.4149    0.0000 O   0  0  0  0  0  0  0  0  0  0  0  0
   -3.3705    0.0000    0.0000 C   0  0  0  0  0  0  0  0  0  0  0  0
   -4.6098   -0.8450    0.0000 C   0  0  0  0  0  0  0  0  0  0  0  0
   -4.6098    0.8450    0.0000 O   0  0  0  0  0  0  0  0  0  0  0  0
   -3.0367    1.4624    0.0000 C   0  0  0  0  0  0  0  0  0  0  0  0
   -2.1015    2.6351    0.0000 C   0  0  0  0  0  0  0  0  0  0  0  0
   -3.0367    3.8079    0.0000 C   0  0  0  0  0  0  0  0  0  0  0  0
   -0.7500    3.2860    0.0000 C   0  0  0  0  0  0  0  0  0  0  0  0
   -1.0838    4.7484    0.0000 O   0  0  0  0  0  0  0  0  0  0  0  0
    0.0158    5.7686    0.0000 C   0  0  0  0  0  0  0  0  0  0  0  0
   -0.3180    7.2310    0.0000 C   0  0  0  0  0  0  0  0  0  0  0  0
    0.7816    8.2513    0.0000 N   0  0  0  0  0  0  0  0  0  0  0  0
    0.4478    9.7137    0.0000 C   0  0  0  0  0  0  0  0  0  0  0  0
    1.5474   10.7339    0.0000 C   0  0  0  0  0  0  0  0  0  0  0  0
   -0.9855   10.1558    0.0000 O   0  0  0  0  0  0  0  0  0  0  0  0
    0.7500    3.2860    0.0000 C   0  0  0  0  0  0  0  0  0  0  0  0
    1.0838    4.7484    0.0000 C   0  0  0  0  0  0  0  0  0  0  0  0
    2.1015    2.6351    0.0000 C   0  0  0  0  0  0  0  0  0  0  0  0
    3.0367    3.8079    0.0000 O   0  0  0  0  0  0  0  0  0  0  0  0
    3.0367    1.4624    0.0000 C   0  0  0  0  0  0  0  0  0  0  0  0
    3.7867    2.7614    0.0000 C   0  0  0  0  0  0  0  0  0  0  0  0
    4.5199    1.2388    0.0000 O   0  0  0  0  0  0  0  0  0  0  0  0
  1  2  1  0
  3  2  1  1
  3  4  1  0
  4  5  1  0
  5  6  2  0
  5  7  1  0
  7  8  1  6
  7  9  1  0
  9 10  1  1
 11 10  1  6
 11 12  1  0
 12 13  1  0
 13 14  1  1
 13 15  1  0
 15 16  1  0
 13 17  1  0
 17 18  1  6
 17 19  1  0
 19 20  1  1
 19 21  1  0
  9 22  1  0
 22 23  1  6
 22 24  1  0
 24 25  1  1
 26 25  1  1
 26 27  1  0
 27 28  1  0
 28 29  1  1
 28 30  1  0
 30 31  1  0
 31 32  1  1
 32 33  1  0
 32 34  1  0
 34 35  1  0
 34 36  1  0
 31 37  1  0
 37 38  1  6
 24 39  1  0
 39 40  1  1
 39 41  1  0
 39 42  1  0
 42 43  1  0
 43 44  1  1
 43 45  1  0
 45 46  1  6
 46 47  1  0
 47 48  1  0
 48 49  1  0
 49 50  1  0
 50 51  1  0
 50 52  2  0
 45 53  1  0
 53 54  1  6
 53 55  1  0
 55 56  1  1
 55 57  1  0
 57 58  1  1
 57 59  1  0
 57  3  1  0
 21 11  1  0
 37 26  1  0
M  END
>  <ChEMBL_IDs>  (30) 
CHEMBL1269437

>  <target_organism>  (30) 
nan

>  <target_molecule_pref_name>  (30) 
None

>  <# Known Targets>  (30) 
1.0

>  <Known Targets>  (30) 
CHEMBL3879801

>  <smiles>  (30) 
CC[C@H]1OC(=O)[C@H](C)[C@@H](O[C@H]2C[C@@](C)(OC)[C@@H](O)[C@H](C)O2)[C@H](C)[C@@H](O[C@@H]2O[C@H](C)C[C@H](N(C)C(C)C)[C@H]2O)[C@](C)(O)C[C@@H](C)[C@H](OCCNC(C)=O)[C@H](C)[C@@H](O)[C@]1(C)O

$$$$

     RDKit          2D

 59 61  0  0  0  0  0  0  0  0999 V2000
   10.1205   -3.8971    0.0000 C   0  0  0  0  0  0  0  0  0  0  0  0
    9.3705   -2.5981    0.0000 C   0  0  0  0  0  0  0  0  0  0  0  0
    7.8705   -2.5981    0.0000 N   0  0  0  0  0  0  0  0  0  0  0  0
    7.1205   -1.2990    0.0000 C   0  0  0  0  0  0  0  0  0  0  0  0
    7.8705    0.0000    0.0000 O   0  0  0  0  0  0  0  0  0  0  0  0
    5.6205   -1.2990    0.0000 C   0  0  0  0  0  0  0  0  0  0  0  0
    4.8705    0.0000    0.0000 O   0  0  0  0  0  0  0  0  0  0  0  0
    3.3705    0.0000    0.0000 C   0  0  0  0  0  0  0  0  0  0  0  0
    3.0367   -1.4624    0.0000 C   0  0  0  0  0  0  0  0  0  0  0  0
    4.3881   -2.1132    0.0000 C   0  0  0  0  0  0  0  0  0  0  0  0
    2.1015   -2.6351    0.0000 C   0  0  0  0  0  0  0  0  0  0  0  0
    0.7500   -3.2860    0.0000 C   0  0  0  0  0  0  0  0  0  0  0  0
    1.8496   -4.3062    0.0000 C   0  0  0  0  0  0  0  0  0  0  0  0
    0.2020   -4.6823    0.0000 O   0  0  0  0  0  0  0  0  0  0  0  0
   -0.7500   -3.2860    0.0000 C   0  0  0  0  0  0  0  0  0  0  0  0
   -1.0838   -4.7484    0.0000 O   0  0  0  0  0  0  0  0  0  0  0  0
    0.0158   -5.7686    0.0000 C   0  0  0  0  0  0  0  0  0  0  0  0
    1.4492   -5.3265    0.0000 O   0  0  0  0  0  0  0  0  0  0  0  0
    2.5487   -6.3467    0.0000 C   0  0  0  0  0  0  0  0  0  0  0  0
    3.9821   -5.9046    0.0000 C   0  0  0  0  0  0  0  0  0  0  0  0
    2.2150   -7.8091    0.0000 C   0  0  0  0  0  0  0  0  0  0  0  0
    0.7816   -8.2513    0.0000 C   0  0  0  0  0  0  0  0  0  0  0  0
    0.4478   -9.7137    0.0000 N   0  0  0  0  0  0  0  0  0  0  0  0
    1.5474  -10.7339    0.0000 C   0  0  0  0  0  0  0  0  0  0  0  0
   -0.9855  -10.1558    0.0000 C   0  0  0  0  0  0  0  0  0  0  0  0
   -1.3193  -11.6182    0.0000 C   0  0  0  0  0  0  0  0  0  0  0  0
   -2.0851   -9.1355    0.0000 C   0  0  0  0  0  0  0  0  0  0  0  0
   -0.3180   -7.2310    0.0000 C   0  0  0  0  0  0  0  0  0  0  0  0
   -1.7513   -7.6731    0.0000 O   0  0  0  0  0  0  0  0  0  0  0  0
   -2.1015   -2.6351    0.0000 C   0  0  0  0  0  0  0  0  0  0  0  0
   -3.0367   -3.8079    0.0000 C   0  0  0  0  0  0  0  0  0  0  0  0
   -3.0367   -1.4624    0.0000 C   0  0  0  0  0  0  0  0  0  0  0  0
   -4.3881   -2.1132    0.0000 O   0  0  0  0  0  0  0  0  0  0  0  0
   -5.6275   -1.2682    0.0000 C   0  0  0  0  0  0  0  0  0  0  0  0
   -6.9790   -1.9191    0.0000 C   0  0  0  0  0  0  0  0  0  0  0  0
   -8.2183   -1.0741    0.0000 C   0  0  0  0  0  0  0  0  0  0  0  0
   -9.6719   -0.7039    0.0000 C   0  0  0  0  0  0  0  0  0  0  0  0
   -8.8352   -2.4413    0.0000 O   0  0  0  0  0  0  0  0  0  0  0  0
  -10.3278   -2.5907    0.0000 C   0  0  0  0  0  0  0  0  0  0  0  0
   -8.1062    0.4217    0.0000 C   0  0  0  0  0  0  0  0  0  0  0  0
   -9.3456    1.2667    0.0000 O   0  0  0  0  0  0  0  0  0  0  0  0
   -6.7548    1.0725    0.0000 C   0  0  0  0  0  0  0  0  0  0  0  0
   -6.6427    2.5684    0.0000 C   0  0  0  0  0  0  0  0  0  0  0  0
   -5.5154    0.2276    0.0000 O   0  0  0  0  0  0  0  0  0  0  0  0
   -3.3705    0.0000    0.0000 C   0  0  0  0  0  0  0  0  0  0  0  0
   -4.6804    0.3267    0.0000 C   0  0  0  0  0  0  0  0  0  0  0  0
   -3.0367    1.4624    0.0000 C   0  0  0  0  0  0  0  0  0  0  0  0
   -4.3881    2.1132    0.0000 O   0  0  0  0  0  0  0  0  0  0  0  0
   -2.1015    2.6351    0.0000 O   0  0  0  0  0  0  0  0  0  0  0  0
   -0.7500    3.2860    0.0000 C   0  0  0  0  0  0  0  0  0  0  0  0
   -1.0838    4.7484    0.0000 C   0  0  0  0  0  0  0  0  0  0  0  0
    0.0158    5.7686    0.0000 C   0  0  0  0  0  0  0  0  0  0  0  0
    0.7500    3.2860    0.0000 C   0  0  0  0  0  0  0  0  0  0  0  0
    0.2020    4.6823    0.0000 C   0  0  0  0  0  0  0  0  0  0  0  0
    1.8496    4.3062    0.0000 O   0  0  0  0  0  0  0  0  0  0  0  0
    2.1015    2.6351    0.0000 C   0  0  0  0  0  0  0  0  0  0  0  0
    3.0367    3.8079    0.0000 O   0  0  0  0  0  0  0  0  0  0  0  0
    3.0367    1.4624    0.0000 C   0  0  0  0  0  0  0  0  0  0  0  0
    4.3881    2.1132    0.0000 C   0  0  0  0  0  0  0  0  0  0  0  0
  1  2  1  0
  2  3  1  0
  3  4  1  0
  4  5  2  0
  4  6  1  0
  6  7  1  0
  8  7  1  1
  8  9  1  0
  9 10  1  6
  9 11  1  0
 11 12  1  0
 12 13  1  6
 12 14  1  0
 12 15  1  0
 15 16  1  6
 17 16  1  6
 17 18  1  0
 18 19  1  0
 19 20  1  6
 19 21  1  0
 21 22  1  0
 22 23  1  6
 23 24  1  0
 23 25  1  0
 25 26  1  0
 25 27  1  0
 22 28  1  0
 28 29  1  1
 15 30  1  0
 30 31  1  1
 30 32  1  0
 32 33  1  6
 34 33  1  1
 34 35  1  0
 35 36  1  0
 36 37  1  6
 36 38  1  0
 38 39  1  0
 36 40  1  0
 40 41  1  1
 40 42  1  0
 42 43  1  6
 42 44  1  0
 32 45  1  0
 45 46  1  1
 45 47  1  0
 47 48  2  0
 47 49  1  0
 49 50  1  0
 50 51  1  6
 51 52  1  0
 50 53  1  0
 53 54  1  6
 53 55  1  0
 53 56  1  0
 56 57  1  6
 56 58  1  0
 58 59  1  1
 58  8  1  0
 28 17  1  0
 44 34  1  0
M  END
>  <ChEMBL_IDs>  (31) 
CHEMBL584552

>  <target_organism>  (31) 
Rattus norvegicus

>  <target_molecule_pref_name>  (31) 
None

>  <# Known Targets>  (31) 
1.0

>  <Known Targets>  (31) 
CHEMBL5306

>  <smiles>  (31) 
CCNC(=O)CO[C@H]1[C@H](C)C[C@@](C)(O)[C@H](O[C@@H]2O[C@H](C)C[C@H](N(C)C(C)C)[C@H]2O)[C@@H](C)[C@H](O[C@H]2C[C@@](C)(OC)[C@@H](O)[C@H](C)O2)[C@@H](C)C(=O)O[C@H](CC)[C@@](C)(O)[C@H](O)[C@H]1C

$$$$

     RDKit          2D

 58 60  0  0  0  0  0  0  0  0999 V2000
    5.6205   -1.2990    0.0000 C   0  0  0  0  0  0  0  0  0  0  0  0
    4.8705    0.0000    0.0000 C   0  0  0  0  0  0  0  0  0  0  0  0
    3.3705    0.0000    0.0000 C   0  0  0  0  0  0  0  0  0  0  0  0
    3.0367   -1.4624    0.0000 O   0  0  0  0  0  0  0  0  0  0  0  0
    2.1015   -2.6351    0.0000 C   0  0  0  0  0  0  0  0  0  0  0  0
    3.0367   -3.8079    0.0000 O   0  0  0  0  0  0  0  0  0  0  0  0
    0.7500   -3.2860    0.0000 C   0  0  0  0  0  0  0  0  0  0  0  0
    1.3600   -4.4903    0.0000 C   0  0  0  0  0  0  0  0  0  0  0  0
   -0.7500   -3.2860    0.0000 C   0  0  0  0  0  0  0  0  0  0  0  0
   -1.0838   -4.7484    0.0000 O   0  0  0  0  0  0  0  0  0  0  0  0
    0.0158   -5.7686    0.0000 C   0  0  0  0  0  0  0  0  0  0  0  0
   -0.3180   -7.2310    0.0000 C   0  0  0  0  0  0  0  0  0  0  0  0
    0.7816   -8.2513    0.0000 C   0  0  0  0  0  0  0  0  0  0  0  0
    1.4659   -9.5861    0.0000 C   0  0  0  0  0  0  0  0  0  0  0  0
   -0.4141   -9.1570    0.0000 O   0  0  0  0  0  0  0  0  0  0  0  0
   -0.2276  -10.6453    0.0000 C   0  0  0  0  0  0  0  0  0  0  0  0
    2.2150   -7.8091    0.0000 C   0  0  0  0  0  0  0  0  0  0  0  0
    2.5487   -6.3467    0.0000 C   0  0  0  0  0  0  0  0  0  0  0  0
    3.9821   -5.9046    0.0000 C   0  0  0  0  0  0  0  0  0  0  0  0
    1.4492   -5.3265    0.0000 O   0  0  0  0  0  0  0  0  0  0  0  0
   -2.1015   -2.6351    0.0000 C   0  0  0  0  0  0  0  0  0  0  0  0
   -3.0367   -3.8079    0.0000 C   0  0  0  0  0  0  0  0  0  0  0  0
   -3.0367   -1.4624    0.0000 C   0  0  0  0  0  0  0  0  0  0  0  0
   -4.3881   -2.1132    0.0000 O   0  0  0  0  0  0  0  0  0  0  0  0
   -5.6275   -1.2682    0.0000 C   0  0  0  0  0  0  0  0  0  0  0  0
   -5.5154    0.2276    0.0000 O   0  0  0  0  0  0  0  0  0  0  0  0
   -6.7548    1.0725    0.0000 C   0  0  0  0  0  0  0  0  0  0  0  0
   -6.6427    2.5684    0.0000 C   0  0  0  0  0  0  0  0  0  0  0  0
   -8.1062    0.4217    0.0000 C   0  0  0  0  0  0  0  0  0  0  0  0
   -8.2183   -1.0741    0.0000 C   0  0  0  0  0  0  0  0  0  0  0  0
   -9.5698   -1.7249    0.0000 N   0  0  0  0  0  0  0  0  0  0  0  0
  -10.8091   -0.8799    0.0000 C   0  0  0  0  0  0  0  0  0  0  0  0
   -9.6819   -3.2207    0.0000 C   0  0  0  0  0  0  0  0  0  0  0  0
  -11.0333   -3.8715    0.0000 C   0  0  0  0  0  0  0  0  0  0  0  0
   -8.4425   -4.0657    0.0000 C   0  0  0  0  0  0  0  0  0  0  0  0
   -6.9790   -1.9191    0.0000 C   0  0  0  0  0  0  0  0  0  0  0  0
   -7.0910   -3.4149    0.0000 O   0  0  0  0  0  0  0  0  0  0  0  0
   -3.3705    0.0000    0.0000 C   0  0  0  0  0  0  0  0  0  0  0  0
   -4.6098   -0.8450    0.0000 C   0  0  0  0  0  0  0  0  0  0  0  0
   -4.6098    0.8450    0.0000 O   0  0  0  0  0  0  0  0  0  0  0  0
   -3.0367    1.4624    0.0000 C   0  0  0  0  0  0  0  0  0  0  0  0
   -2.1015    2.6351    0.0000 C   0  0  0  0  0  0  0  0  0  0  0  0
   -3.0367    3.8079    0.0000 C   0  0  0  0  0  0  0  0  0  0  0  0
   -0.7500    3.2860    0.0000 C   0  0  0  0  0  0  0  0  0  0  0  0
   -1.0838    4.7484    0.0000 O   0  0  0  0  0  0  0  0  0  0  0  0
    0.0158    5.7686    0.0000 C   0  0  0  0  0  0  0  0  0  0  0  0
   -0.3180    7.2310    0.0000 C   0  0  0  0  0  0  0  0  0  0  0  0
   -1.7513    7.6731    0.0000 O   0  0  0  0  0  0  0  0  0  0  0  0
    0.7816    8.2513    0.0000 N   0  0  0  0  0  0  0  0  0  0  0  0
    0.4478    9.7137    0.0000 C   0  0  0  0  0  0  0  0  0  0  0  0
    2.2150    7.8091    0.0000 C   0  0  0  0  0  0  0  0  0  0  0  0
    0.7500    3.2860    0.0000 C   0  0  0  0  0  0  0  0  0  0  0  0
    1.0838    4.7484    0.0000 C   0  0  0  0  0  0  0  0  0  0  0  0
    2.1015    2.6351    0.0000 C   0  0  0  0  0  0  0  0  0  0  0  0
    3.0367    3.8079    0.0000 O   0  0  0  0  0  0  0  0  0  0  0  0
    3.0367    1.4624    0.0000 C   0  0  0  0  0  0  0  0  0  0  0  0
    3.7867    2.7614    0.0000 C   0  0  0  0  0  0  0  0  0  0  0  0
    4.5199    1.2388    0.0000 O   0  0  0  0  0  0  0  0  0  0  0  0
  1  2  1  0
  3  2  1  1
  3  4  1  0
  4  5  1  0
  5  6  2  0
  5  7  1  0
  7  8  1  6
  7  9  1  0
  9 10  1  1
 11 10  1  6
 11 12  1  0
 12 13  1  0
 13 14  1  1
 13 15  1  0
 15 16  1  0
 13 17  1  0
 17 18  1  0
 18 19  1  1
 18 20  1  0
  9 21  1  0
 21 22  1  6
 21 23  1  0
 23 24  1  1
 25 24  1  1
 25 26  1  0
 26 27  1  0
 27 28  1  1
 27 29  1  0
 29 30  1  0
 30 31  1  1
 31 32  1  0
 31 33  1  0
 33 34  1  0
 33 35  1  0
 30 36  1  0
 36 37  1  6
 23 38  1  0
 38 39  1  1
 38 40  1  0
 38 41  1  0
 41 42  1  0
 42 43  1  1
 42 44  1  0
 44 45  1  6
 45 46  1  0
 46 47  1  0
 47 48  2  0
 47 49  1  0
 49 50  1  0
 49 51  1  0
 44 52  1  0
 52 53  1  6
 52 54  1  0
 54 55  1  1
 54 56  1  0
 56 57  1  1
 56 58  1  0
 56  3  1  0
 20 11  1  0
 36 25  1  0
M  END
>  <ChEMBL_IDs>  (32) 
CHEMBL1778053

>  <target_organism>  (32) 
Homo sapiens,None,Escherichia coli K-12

>  <target_molecule_pref_name>  (32) 
None

>  <# Known Targets>  (32) 
1.0

>  <Known Targets>  (32) 
CHEMBL5306

>  <smiles>  (32) 
CC[C@H]1OC(=O)[C@H](C)[C@@H](O[C@H]2C[C@@](C)(OC)C[C@H](C)O2)[C@H](C)[C@@H](O[C@@H]2O[C@H](C)C[C@H](N(C)C(C)C)[C@H]2O)[C@](C)(O)C[C@@H](C)[C@H](OCC(=O)N(C)C)[C@H](C)[C@@H](O)[C@]1(C)O

$$$$

     RDKit          2D

 62 64  0  0  0  0  0  0  0  0999 V2000
    5.6205   -1.2990    0.0000 C   0  0  0  0  0  0  0  0  0  0  0  0
    4.8705    0.0000    0.0000 C   0  0  0  0  0  0  0  0  0  0  0  0
    3.3705    0.0000    0.0000 C   0  0  0  0  0  0  0  0  0  0  0  0
    3.0367   -1.4624    0.0000 O   0  0  0  0  0  0  0  0  0  0  0  0
    2.1015   -2.6351    0.0000 C   0  0  0  0  0  0  0  0  0  0  0  0
    3.0367   -3.8079    0.0000 O   0  0  0  0  0  0  0  0  0  0  0  0
    0.7500   -3.2860    0.0000 C   0  0  0  0  0  0  0  0  0  0  0  0
    1.3600   -4.4903    0.0000 C   0  0  0  0  0  0  0  0  0  0  0  0
   -0.7500   -3.2860    0.0000 C   0  0  0  0  0  0  0  0  0  0  0  0
   -1.0838   -4.7484    0.0000 O   0  0  0  0  0  0  0  0  0  0  0  0
    0.0158   -5.7686    0.0000 C   0  0  0  0  0  0  0  0  0  0  0  0
   -0.3180   -7.2310    0.0000 C   0  0  0  0  0  0  0  0  0  0  0  0
    0.7816   -8.2513    0.0000 C   0  0  0  0  0  0  0  0  0  0  0  0
    1.4659   -9.5861    0.0000 C   0  0  0  0  0  0  0  0  0  0  0  0
   -0.4141   -9.1570    0.0000 O   0  0  0  0  0  0  0  0  0  0  0  0
   -0.2276  -10.6453    0.0000 C   0  0  0  0  0  0  0  0  0  0  0  0
    2.2150   -7.8091    0.0000 C   0  0  0  0  0  0  0  0  0  0  0  0
    3.3145   -8.8294    0.0000 O   0  0  0  0  0  0  0  0  0  0  0  0
    2.5487   -6.3467    0.0000 C   0  0  0  0  0  0  0  0  0  0  0  0
    3.9821   -5.9046    0.0000 C   0  0  0  0  0  0  0  0  0  0  0  0
    1.4492   -5.3265    0.0000 O   0  0  0  0  0  0  0  0  0  0  0  0
   -2.1015   -2.6351    0.0000 C   0  0  0  0  0  0  0  0  0  0  0  0
   -3.0367   -3.8079    0.0000 C   0  0  0  0  0  0  0  0  0  0  0  0
   -3.0367   -1.4624    0.0000 C   0  0  0  0  0  0  0  0  0  0  0  0
   -4.3881   -2.1132    0.0000 O   0  0  0  0  0  0  0  0  0  0  0  0
   -5.6275   -1.2682    0.0000 C   0  0  0  0  0  0  0  0  0  0  0  0
   -5.5154    0.2276    0.0000 O   0  0  0  0  0  0  0  0  0  0  0  0
   -6.7548    1.0725    0.0000 C   0  0  0  0  0  0  0  0  0  0  0  0
   -6.6427    2.5684    0.0000 C   0  0  0  0  0  0  0  0  0  0  0  0
   -8.1062    0.4217    0.0000 C   0  0  0  0  0  0  0  0  0  0  0  0
   -8.2183   -1.0741    0.0000 C   0  0  0  0  0  0  0  0  0  0  0  0
   -9.5698   -1.7249    0.0000 N   0  0  0  0  0  0  0  0  0  0  0  0
  -10.8091   -0.8799    0.0000 C   0  0  0  0  0  0  0  0  0  0  0  0
   -9.6819   -3.2207    0.0000 C   0  0  0  0  0  0  0  0  0  0  0  0
  -11.0333   -3.8715    0.0000 C   0  0  0  0  0  0  0  0  0  0  0  0
   -8.4425   -4.0657    0.0000 C   0  0  0  0  0  0  0  0  0  0  0  0
   -6.9790   -1.9191    0.0000 C   0  0  0  0  0  0  0  0  0  0  0  0
   -7.0910   -3.4149    0.0000 O   0  0  0  0  0  0  0  0  0  0  0  0
   -3.3705    0.0000    0.0000 C   0  0  0  0  0  0  0  0  0  0  0  0
   -4.6098   -0.8450    0.0000 C   0  0  0  0  0  0  0  0  0  0  0  0
   -4.6098    0.8450    0.0000 O   0  0  0  0  0  0  0  0  0  0  0  0
   -3.0367    1.4624    0.0000 C   0  0  0  0  0  0  0  0  0  0  0  0
   -2.1015    2.6351    0.0000 C   0  0  0  0  0  0  0  0  0  0  0  0
   -3.0367    3.8079    0.0000 C   0  0  0  0  0  0  0  0  0  0  0  0
   -0.7500    3.2860    0.0000 C   0  0  0  0  0  0  0  0  0  0  0  0
   -1.0838    4.7484    0.0000 O   0  0  0  0  0  0  0  0  0  0  0  0
    0.0158    5.7686    0.0000 C   0  0  0  0  0  0  0  0  0  0  0  0
   -0.3180    7.2310    0.0000 C   0  0  0  0  0  0  0  0  0  0  0  0
   -1.7513    7.6731    0.0000 O   0  0  0  0  0  0  0  0  0  0  0  0
    0.7816    8.2513    0.0000 N   0  0  0  0  0  0  0  0  0  0  0  0
    0.4478    9.7137    0.0000 C   0  0  0  0  0  0  0  0  0  0  0  0
    1.5474   10.7339    0.0000 C   0  0  0  0  0  0  0  0  0  0  0  0
    2.6470   11.7542    0.0000 F   0  0  0  0  0  0  0  0  0  0  0  0
    0.5271   11.8335    0.0000 F   0  0  0  0  0  0  0  0  0  0  0  0
    2.5676    9.6343    0.0000 F   0  0  0  0  0  0  0  0  0  0  0  0
    0.7500    3.2860    0.0000 C   0  0  0  0  0  0  0  0  0  0  0  0
    1.0838    4.7484    0.0000 C   0  0  0  0  0  0  0  0  0  0  0  0
    2.1015    2.6351    0.0000 C   0  0  0  0  0  0  0  0  0  0  0  0
    3.0367    3.8079    0.0000 O   0  0  0  0  0  0  0  0  0  0  0  0
    3.0367    1.4624    0.0000 C   0  0  0  0  0  0  0  0  0  0  0  0
    3.7867    2.7614    0.0000 C   0  0  0  0  0  0  0  0  0  0  0  0
    4.5199    1.2388    0.0000 O   0  0  0  0  0  0  0  0  0  0  0  0
  1  2  1  0
  3  2  1  1
  3  4  1  0
  4  5  1  0
  5  6  2  0
  5  7  1  0
  7  8  1  6
  7  9  1  0
  9 10  1  1
 11 10  1  6
 11 12  1  0
 12 13  1  0
 13 14  1  1
 13 15  1  0
 15 16  1  0
 13 17  1  0
 17 18  1  6
 17 19  1  0
 19 20  1  1
 19 21  1  0
  9 22  1  0
 22 23  1  6
 22 24  1  0
 24 25  1  1
 26 25  1  1
 26 27  1  0
 27 28  1  0
 28 29  1  1
 28 30  1  0
 30 31  1  0
 31 32  1  1
 32 33  1  0
 32 34  1  0
 34 35  1  0
 34 36  1  0
 31 37  1  0
 37 38  1  6
 24 39  1  0
 39 40  1  1
 39 41  1  0
 39 42  1  0
 42 43  1  0
 43 44  1  1
 43 45  1  0
 45 46  1  6
 46 47  1  0
 47 48  1  0
 48 49  2  0
 48 50  1  0
 50 51  1  0
 51 52  1  0
 52 53  1  0
 52 54  1  0
 52 55  1  0
 45 56  1  0
 56 57  1  6
 56 58  1  0
 58 59  1  1
 58 60  1  0
 60 61  1  1
 60 62  1  0
 60  3  1  0
 21 11  1  0
 37 26  1  0
M  END
>  <ChEMBL_IDs>  (33) 
CHEMBL584553

>  <target_organism>  (33) 
Rattus norvegicus

>  <target_molecule_pref_name>  (33) 
None

>  <# Known Targets>  (33) 
1.0

>  <Known Targets>  (33) 
CHEMBL5306

>  <smiles>  (33) 
CC[C@H]1OC(=O)[C@H](C)[C@@H](O[C@H]2C[C@@](C)(OC)[C@@H](O)[C@H](C)O2)[C@H](C)[C@@H](O[C@@H]2O[C@H](C)C[C@H](N(C)C(C)C)[C@H]2O)[C@](C)(O)C[C@@H](C)[C@H](OCC(=O)NCC(F)(F)F)[C@H](C)[C@@H](O)[C@]1(C)O

$$$$

     RDKit          2D

 63 65  0  0  0  0  0  0  0  0999 V2000
    6.0944   -1.2990    0.0000 C   0  0  0  0  0  0  0  0  0  0  0  0
    5.3444    0.0000    0.0000 O   0  0  0  0  0  0  0  0  0  0  0  0
    3.8444    0.0000    0.0000 C   0  0  0  0  0  0  0  0  0  0  0  0
    3.5517   -1.4712    0.0000 C   0  0  0  0  0  0  0  0  0  0  0  0
    4.9376   -2.0452    0.0000 O   0  0  0  0  0  0  0  0  0  0  0  0
    5.1333   -3.5324    0.0000 C   0  0  0  0  0  0  0  0  0  0  0  0
    3.9433   -4.4455    0.0000 O   0  0  0  0  0  0  0  0  0  0  0  0
    4.1391   -5.9327    0.0000 C   0  0  0  0  0  0  0  0  0  0  0  0
    2.9491   -6.8458    0.0000 C   0  0  0  0  0  0  0  0  0  0  0  0
    5.5249   -6.5067    0.0000 C   0  0  0  0  0  0  0  0  0  0  0  0
    5.7207   -7.9939    0.0000 O   0  0  0  0  0  0  0  0  0  0  0  0
    4.5307   -8.9070    0.0000 C   0  0  0  0  0  0  0  0  0  0  0  0
    3.1449   -8.3330    0.0000 C   0  0  0  0  0  0  0  0  0  0  0  0
    1.9548   -9.2461    0.0000 C   0  0  0  0  0  0  0  0  0  0  0  0
    0.5243   -9.6972    0.0000 C   0  0  0  0  0  0  0  0  0  0  0  0
    1.2622   -7.9156    0.0000 O   0  0  0  0  0  0  0  0  0  0  0  0
    2.1506  -10.7333    0.0000 C   0  0  0  0  0  0  0  0  0  0  0  0
    0.9606  -11.6464    0.0000 O   0  0  0  0  0  0  0  0  0  0  0  0
    1.1564  -13.1336    0.0000 C   0  0  0  0  0  0  0  0  0  0  0  0
    2.5422  -13.7076    0.0000 O   0  0  0  0  0  0  0  0  0  0  0  0
   -0.0336  -14.0468    0.0000 C   0  0  0  0  0  0  0  0  0  0  0  0
    0.1621  -15.5339    0.0000 C   0  0  0  0  0  0  0  0  0  0  0  0
   -1.0279  -16.4471    0.0000 C   0  0  0  0  0  0  0  0  0  0  0  0
    1.5480  -16.1079    0.0000 C   0  0  0  0  0  0  0  0  0  0  0  0
    3.5364  -11.3073    0.0000 C   0  0  0  0  0  0  0  0  0  0  0  0
    3.7322  -12.7945    0.0000 C   0  0  0  0  0  0  0  0  0  0  0  0
    4.7265  -10.3942    0.0000 O   0  0  0  0  0  0  0  0  0  0  0  0
    6.7150   -5.5936    0.0000 C   0  0  0  0  0  0  0  0  0  0  0  0
    8.1008   -6.1676    0.0000 N   0  0  0  0  0  0  0  0  0  0  0  0
    8.2966   -7.6548    0.0000 C   0  0  0  0  0  0  0  0  0  0  0  0
    9.2908   -5.2544    0.0000 C   0  0  0  0  0  0  0  0  0  0  0  0
    6.5192   -4.1064    0.0000 C   0  0  0  0  0  0  0  0  0  0  0  0
    7.7092   -3.1933    0.0000 O   0  0  0  0  0  0  0  0  0  0  0  0
    2.7184   -2.7184    0.0000 C   0  0  0  0  0  0  0  0  0  0  0  0
    3.7790   -3.7790    0.0000 C   0  0  0  0  0  0  0  0  0  0  0  0
    3.3908   -5.2279    0.0000 C   0  0  0  0  0  0  0  0  0  0  0  0
    4.1633   -6.5137    0.0000 O   0  0  0  0  0  0  0  0  0  0  0  0
    1.4712   -3.5517    0.0000 C   0  0  0  0  0  0  0  0  0  0  0  0
   -0.0000   -3.8444    0.0000 C   0  0  0  0  0  0  0  0  0  0  0  0
   -0.0000   -5.3444    0.0000 C   0  0  0  0  0  0  0  0  0  0  0  0
   -1.4712   -3.5517    0.0000 C   0  0  0  0  0  0  0  0  0  0  0  0
   -2.0452   -4.9376    0.0000 O   0  0  0  0  0  0  0  0  0  0  0  0
   -3.5324   -5.1333    0.0000 C   0  0  0  0  0  0  0  0  0  0  0  0
   -4.4455   -3.9433    0.0000 O   0  0  0  0  0  0  0  0  0  0  0  0
   -4.1064   -6.5192    0.0000 C   0  0  0  0  0  0  0  0  0  0  0  0
   -5.5936   -6.7150    0.0000 C   0  0  0  0  0  0  0  0  0  0  0  0
   -3.1933   -7.7092    0.0000 C   0  0  0  0  0  0  0  0  0  0  0  0
   -2.7184   -2.7184    0.0000 C   0  0  0  0  0  0  0  0  0  0  0  0
   -3.5517   -1.4712    0.0000 C   0  0  0  0  0  0  0  0  0  0  0  0
   -3.8444    0.0000    0.0000 C   0  0  0  0  0  0  0  0  0  0  0  0
   -3.5517    1.4712    0.0000 C   0  0  0  0  0  0  0  0  0  0  0  0
   -2.7184    2.7184    0.0000 C   0  0  0  0  0  0  0  0  0  0  0  0
   -1.4712    3.5517    0.0000 C   0  0  0  0  0  0  0  0  0  0  0  0
   -2.0452    4.9376    0.0000 C   0  0  0  0  0  0  0  0  0  0  0  0
    0.0000    3.8444    0.0000 O   0  0  0  0  0  0  0  0  0  0  0  0
    1.4712    3.5517    0.0000 C   0  0  0  0  0  0  0  0  0  0  0  0
    2.0452    4.9376    0.0000 O   0  0  0  0  0  0  0  0  0  0  0  0
    2.7184    2.7184    0.0000 C   0  0  0  0  0  0  0  0  0  0  0  0
    3.5517    1.4712    0.0000 C   0  0  0  0  0  0  0  0  0  0  0  0
    4.9376    2.0452    0.0000 O   0  0  0  0  0  0  0  0  0  0  0  0
    6.1276    1.1321    0.0000 C   0  0  0  0  0  0  0  0  0  0  0  0
    7.5134    1.7061    0.0000 C   0  0  0  0  0  0  0  0  0  0  0  0
    6.2975   -0.3583    0.0000 O   0  0  0  0  0  0  0  0  0  0  0  0
  1  2  1  0
  3  2  1  6
  3  4  1  0
  4  5  1  1
  6  5  1  1
  6  7  1  0
  7  8  1  0
  8  9  1  1
  8 10  1  0
 10 11  1  6
 12 11  1  6
 12 13  1  0
 13 14  1  0
 14 15  1  1
 14 16  1  0
 14 17  1  0
 17 18  1  6
 18 19  1  0
 19 20  2  0
 19 21  1  0
 21 22  1  0
 22 23  1  0
 22 24  1  0
 17 25  1  0
 25 26  1  1
 25 27  1  0
 10 28  1  0
 28 29  1  1
 29 30  1  0
 29 31  1  0
 28 32  1  0
 32 33  1  6
  4 34  1  0
 34 35  1  1
 35 36  1  0
 36 37  2  0
 34 38  1  0
 38 39  1  0
 39 40  1  1
 39 41  1  0
 41 42  1  1
 42 43  1  0
 43 44  2  0
 43 45  1  0
 45 46  1  0
 45 47  1  0
 41 48  1  0
 48 49  2  0
 49 50  1  0
 50 51  2  0
 51 52  1  0
 52 53  1  0
 53 54  1  1
 53 55  1  0
 55 56  1  0
 56 57  2  0
 56 58  1  0
 58 59  1  0
 59 60  1  1
 60 61  1  0
 61 62  1  0
 61 63  2  0
 59  3  1  0
 32  6  1  0
 27 12  1  0
M  END
>  <ChEMBL_IDs>  (34) 
CHEMBL3251864

>  <target_organism>  (34) 
None

>  <target_molecule_pref_name>  (34) 
None

>  <# Known Targets>  (34) 
1.0

>  <Known Targets>  (34) 
CHEMBL612545

>  <smiles>  (34) 
CO[C@@H]1[C@@H](O[C@@H]2O[C@H](C)[C@@H](O[C@H]3C[C@@](C)(O)[C@@H](OC(=O)CC(C)C)[C@H](C)O3)[C@H](N(C)C)[C@H]2O)[C@@H](CC=O)C[C@@H](C)[C@@H](OC(=O)C(C)C)/C=C/C=C/C[C@@H](C)OC(=O)C[C@H]1OC(C)=O

$$$$

     RDKit          2D

 62 64  0  0  0  0  0  0  0  0999 V2000
    5.6205   -1.2990    0.0000 C   0  0  0  0  0  0  0  0  0  0  0  0
    4.8705    0.0000    0.0000 C   0  0  0  0  0  0  0  0  0  0  0  0
    3.3705    0.0000    0.0000 C   0  0  0  0  0  0  0  0  0  0  0  0
    3.0367   -1.4624    0.0000 O   0  0  0  0  0  0  0  0  0  0  0  0
    2.1015   -2.6351    0.0000 C   0  0  0  0  0  0  0  0  0  0  0  0
    3.0367   -3.8079    0.0000 O   0  0  0  0  0  0  0  0  0  0  0  0
    0.7500   -3.2860    0.0000 C   0  0  0  0  0  0  0  0  0  0  0  0
    1.3600   -4.4903    0.0000 C   0  0  0  0  0  0  0  0  0  0  0  0
   -0.7500   -3.2860    0.0000 C   0  0  0  0  0  0  0  0  0  0  0  0
   -1.0838   -4.7484    0.0000 O   0  0  0  0  0  0  0  0  0  0  0  0
    0.0158   -5.7686    0.0000 C   0  0  0  0  0  0  0  0  0  0  0  0
   -0.3180   -7.2310    0.0000 C   0  0  0  0  0  0  0  0  0  0  0  0
    0.7816   -8.2513    0.0000 C   0  0  0  0  0  0  0  0  0  0  0  0
    1.4659   -9.5861    0.0000 C   0  0  0  0  0  0  0  0  0  0  0  0
   -0.4141   -9.1570    0.0000 O   0  0  0  0  0  0  0  0  0  0  0  0
   -0.2276  -10.6453    0.0000 C   0  0  0  0  0  0  0  0  0  0  0  0
    2.2150   -7.8091    0.0000 C   0  0  0  0  0  0  0  0  0  0  0  0
    3.3145   -8.8294    0.0000 O   0  0  0  0  0  0  0  0  0  0  0  0
    2.5487   -6.3467    0.0000 C   0  0  0  0  0  0  0  0  0  0  0  0
    3.9821   -5.9046    0.0000 C   0  0  0  0  0  0  0  0  0  0  0  0
    1.4492   -5.3265    0.0000 O   0  0  0  0  0  0  0  0  0  0  0  0
   -2.1015   -2.6351    0.0000 C   0  0  0  0  0  0  0  0  0  0  0  0
   -3.0367   -3.8079    0.0000 C   0  0  0  0  0  0  0  0  0  0  0  0
   -3.0367   -1.4624    0.0000 C   0  0  0  0  0  0  0  0  0  0  0  0
   -4.3881   -2.1132    0.0000 O   0  0  0  0  0  0  0  0  0  0  0  0
   -5.6275   -1.2682    0.0000 C   0  0  0  0  0  0  0  0  0  0  0  0
   -5.5154    0.2276    0.0000 O   0  0  0  0  0  0  0  0  0  0  0  0
   -6.7548    1.0725    0.0000 C   0  0  0  0  0  0  0  0  0  0  0  0
   -6.6427    2.5684    0.0000 C   0  0  0  0  0  0  0  0  0  0  0  0
   -8.1062    0.4217    0.0000 C   0  0  0  0  0  0  0  0  0  0  0  0
   -8.2183   -1.0741    0.0000 C   0  0  0  0  0  0  0  0  0  0  0  0
   -9.5698   -1.7249    0.0000 N   0  0  0  0  0  0  0  0  0  0  0  0
  -10.8091   -0.8799    0.0000 C   0  0  0  0  0  0  0  0  0  0  0  0
   -9.6819   -3.2207    0.0000 C   0  0  0  0  0  0  0  0  0  0  0  0
  -11.0333   -3.8715    0.0000 C   0  0  0  0  0  0  0  0  0  0  0  0
   -8.4425   -4.0657    0.0000 C   0  0  0  0  0  0  0  0  0  0  0  0
   -6.9790   -1.9191    0.0000 C   0  0  0  0  0  0  0  0  0  0  0  0
   -7.0910   -3.4149    0.0000 O   0  0  0  0  0  0  0  0  0  0  0  0
   -3.3705    0.0000    0.0000 C   0  0  0  0  0  0  0  0  0  0  0  0
   -4.6098   -0.8450    0.0000 C   0  0  0  0  0  0  0  0  0  0  0  0
   -4.6098    0.8450    0.0000 O   0  0  0  0  0  0  0  0  0  0  0  0
   -3.0367    1.4624    0.0000 C   0  0  0  0  0  0  0  0  0  0  0  0
   -2.1015    2.6351    0.0000 C   0  0  0  0  0  0  0  0  0  0  0  0
   -3.0367    3.8079    0.0000 C   0  0  0  0  0  0  0  0  0  0  0  0
   -0.7500    3.2860    0.0000 C   0  0  0  0  0  0  0  0  0  0  0  0
   -1.0838    4.7484    0.0000 O   0  0  0  0  0  0  0  0  0  0  0  0
    0.0158    5.7686    0.0000 C   0  0  0  0  0  0  0  0  0  0  0  0
   -0.3180    7.2310    0.0000 C   0  0  0  0  0  0  0  0  0  0  0  0
    0.7816    8.2513    0.0000 C   0  0  0  0  0  0  0  0  0  0  0  0
    0.4478    9.7137    0.0000 C   0  0  0  0  0  0  0  0  0  0  0  0
    1.5474   10.7339    0.0000 C   0  0  0  0  0  0  0  0  0  0  0  0
    1.2136   12.1963    0.0000 C   0  0  0  0  0  0  0  0  0  0  0  0
   -0.2198   12.6384    0.0000 O   0  0  0  0  0  0  0  0  0  0  0  0
    2.3132   13.2166    0.0000 N   0  0  0  0  0  0  0  0  0  0  0  0
    1.9794   14.6790    0.0000 C   0  0  0  0  0  0  0  0  0  0  0  0
    0.7500    3.2860    0.0000 C   0  0  0  0  0  0  0  0  0  0  0  0
    1.0838    4.7484    0.0000 C   0  0  0  0  0  0  0  0  0  0  0  0
    2.1015    2.6351    0.0000 C   0  0  0  0  0  0  0  0  0  0  0  0
    3.0367    3.8079    0.0000 O   0  0  0  0  0  0  0  0  0  0  0  0
    3.0367    1.4624    0.0000 C   0  0  0  0  0  0  0  0  0  0  0  0
    3.7867    2.7614    0.0000 C   0  0  0  0  0  0  0  0  0  0  0  0
    4.5199    1.2388    0.0000 O   0  0  0  0  0  0  0  0  0  0  0  0
  1  2  1  0
  3  2  1  1
  3  4  1  0
  4  5  1  0
  5  6  2  0
  5  7  1  0
  7  8  1  6
  7  9  1  0
  9 10  1  1
 11 10  1  6
 11 12  1  0
 12 13  1  0
 13 14  1  1
 13 15  1  0
 15 16  1  0
 13 17  1  0
 17 18  1  6
 17 19  1  0
 19 20  1  1
 19 21  1  0
  9 22  1  0
 22 23  1  6
 22 24  1  0
 24 25  1  1
 26 25  1  1
 26 27  1  0
 27 28  1  0
 28 29  1  1
 28 30  1  0
 30 31  1  0
 31 32  1  1
 32 33  1  0
 32 34  1  0
 34 35  1  0
 34 36  1  0
 31 37  1  0
 37 38  1  6
 24 39  1  0
 39 40  1  1
 39 41  1  0
 39 42  1  0
 42 43  1  0
 43 44  1  1
 43 45  1  0
 45 46  1  6
 46 47  1  0
 47 48  1  0
 48 49  1  0
 49 50  1  0
 50 51  1  0
 51 52  1  0
 52 53  2  0
 52 54  1  0
 54 55  1  0
 45 56  1  0
 56 57  1  6
 56 58  1  0
 58 59  1  1
 58 60  1  0
 60 61  1  1
 60 62  1  0
 60  3  1  0
 21 11  1  0
 37 26  1  0
M  END
>  <ChEMBL_IDs>  (35) 
CHEMBL583097

>  <target_organism>  (35) 
Rattus norvegicus

>  <target_molecule_pref_name>  (35) 
None

>  <# Known Targets>  (35) 
1.0

>  <Known Targets>  (35) 
CHEMBL5306

>  <smiles>  (35) 
CC[C@H]1OC(=O)[C@H](C)[C@@H](O[C@H]2C[C@@](C)(OC)[C@@H](O)[C@H](C)O2)[C@H](C)[C@@H](O[C@@H]2O[C@H](C)C[C@H](N(C)C(C)C)[C@H]2O)[C@](C)(O)C[C@@H](C)[C@H](OCCCCCC(=O)NC)[C@H](C)[C@@H](O)[C@]1(C)O

$$$$

     RDKit          2D

 59 61  0  0  0  0  0  0  0  0999 V2000
    8.3444   -2.5981    0.0000 C   0  0  0  0  0  0  0  0  0  0  0  0
    7.5944   -1.2990    0.0000 C   0  0  0  0  0  0  0  0  0  0  0  0
    6.0944   -1.2990    0.0000 C   0  0  0  0  0  0  0  0  0  0  0  0
    5.3444   -2.5981    0.0000 O   0  0  0  0  0  0  0  0  0  0  0  0
    5.3444    0.0000    0.0000 O   0  0  0  0  0  0  0  0  0  0  0  0
    3.8444    0.0000    0.0000 C   0  0  0  0  0  0  0  0  0  0  0  0
    3.5517   -1.4712    0.0000 C   0  0  0  0  0  0  0  0  0  0  0  0
    2.7184   -2.7184    0.0000 C   0  0  0  0  0  0  0  0  0  0  0  0
    1.4712   -3.5517    0.0000 C   0  0  0  0  0  0  0  0  0  0  0  0
   -0.0000   -3.8444    0.0000 C   0  0  0  0  0  0  0  0  0  0  0  0
   -1.4712   -3.5517    0.0000 C   0  0  0  0  0  0  0  0  0  0  0  0
   -2.7184   -2.7184    0.0000 C   0  0  0  0  0  0  0  0  0  0  0  0
   -3.7790   -3.7790    0.0000 C   0  0  0  0  0  0  0  0  0  0  0  0
   -3.5517   -1.4712    0.0000 O   0  0  0  0  0  0  0  0  0  0  0  0
   -3.8444    0.0000    0.0000 C   0  0  0  0  0  0  0  0  0  0  0  0
   -5.3444    0.0000    0.0000 O   0  0  0  0  0  0  0  0  0  0  0  0
   -3.5517    1.4712    0.0000 C   0  0  0  0  0  0  0  0  0  0  0  0
   -2.7184    2.7184    0.0000 C   0  0  0  0  0  0  0  0  0  0  0  0
   -3.7790    3.7790    0.0000 O   0  0  0  0  0  0  0  0  0  0  0  0
   -1.4712    3.5517    0.0000 C   0  0  0  0  0  0  0  0  0  0  0  0
   -2.0452    4.9376    0.0000 O   0  0  0  0  0  0  0  0  0  0  0  0
   -3.5324    5.1333    0.0000 C   0  0  0  0  0  0  0  0  0  0  0  0
    0.0000    3.8444    0.0000 C   0  0  0  0  0  0  0  0  0  0  0  0
    0.0000    5.3444    0.0000 O   0  0  0  0  0  0  0  0  0  0  0  0
   -1.2990    6.0944    0.0000 C   0  0  0  0  0  0  0  0  0  0  0  0
   -2.5981    5.3444    0.0000 O   0  0  0  0  0  0  0  0  0  0  0  0
   -3.8971    6.0944    0.0000 C   0  0  0  0  0  0  0  0  0  0  0  0
   -5.1962    5.3444    0.0000 C   0  0  0  0  0  0  0  0  0  0  0  0
   -3.8971    7.5944    0.0000 C   0  0  0  0  0  0  0  0  0  0  0  0
   -5.1962    8.3444    0.0000 O   0  0  0  0  0  0  0  0  0  0  0  0
   -6.4952    7.5944    0.0000 C   0  0  0  0  0  0  0  0  0  0  0  0
   -7.7942    8.3444    0.0000 C   0  0  0  0  0  0  0  0  0  0  0  0
   -9.0933    7.5944    0.0000 C   0  0  0  0  0  0  0  0  0  0  0  0
  -10.5705    7.3339    0.0000 C   0  0  0  0  0  0  0  0  0  0  0  0
   -9.6063    9.0039    0.0000 O   0  0  0  0  0  0  0  0  0  0  0  0
   -9.0933    6.0944    0.0000 C   0  0  0  0  0  0  0  0  0  0  0  0
  -10.3923    5.3444    0.0000 O   0  0  0  0  0  0  0  0  0  0  0  0
  -10.3923    3.8444    0.0000 C   0  0  0  0  0  0  0  0  0  0  0  0
   -9.0933    3.0944    0.0000 O   0  0  0  0  0  0  0  0  0  0  0  0
  -11.6913    3.0944    0.0000 C   0  0  0  0  0  0  0  0  0  0  0  0
  -11.6913    1.5944    0.0000 C   0  0  0  0  0  0  0  0  0  0  0  0
  -12.9904    3.8444    0.0000 C   0  0  0  0  0  0  0  0  0  0  0  0
  -14.2894    3.0944    0.0000 C   0  0  0  0  0  0  0  0  0  0  0  0
   -7.7942    5.3444    0.0000 C   0  0  0  0  0  0  0  0  0  0  0  0
   -7.7942    3.8444    0.0000 C   0  0  0  0  0  0  0  0  0  0  0  0
   -6.4952    6.0944    0.0000 O   0  0  0  0  0  0  0  0  0  0  0  0
   -2.5981    8.3444    0.0000 C   0  0  0  0  0  0  0  0  0  0  0  0
   -2.5981    9.8444    0.0000 N   0  0  0  0  0  0  0  0  0  0  0  0
   -1.2990   10.5944    0.0000 C   0  0  0  0  0  0  0  0  0  0  0  0
   -3.8971   10.5944    0.0000 C   0  0  0  0  0  0  0  0  0  0  0  0
   -1.2990    7.5944    0.0000 C   0  0  0  0  0  0  0  0  0  0  0  0
   -0.0000    8.3444    0.0000 O   0  0  0  0  0  0  0  0  0  0  0  0
    1.4712    3.5517    0.0000 C   0  0  0  0  0  0  0  0  0  0  0  0
    2.0452    4.9376    0.0000 C   0  0  0  0  0  0  0  0  0  0  0  0
    3.5324    5.1333    0.0000 C   0  0  0  0  0  0  0  0  0  0  0  0
    4.1064    6.5192    0.0000 O   0  0  0  0  0  0  0  0  0  0  0  0
    2.7184    2.7184    0.0000 C   0  0  0  0  0  0  0  0  0  0  0  0
    3.5517    1.4712    0.0000 C   0  0  0  0  0  0  0  0  0  0  0  0
    4.9376    2.0452    0.0000 C   0  0  0  0  0  0  0  0  0  0  0  0
  1  2  1  0
  2  3  1  0
  3  4  2  0
  3  5  1  0
  6  5  1  1
  6  7  1  0
  7  8  2  0
  8  9  1  0
  9 10  2  0
 10 11  1  0
 11 12  1  0
 12 13  1  1
 12 14  1  0
 14 15  1  0
 15 16  2  0
 15 17  1  0
 17 18  1  0
 18 19  1  1
 18 20  1  0
 20 21  1  6
 21 22  1  0
 20 23  1  0
 23 24  1  1
 25 24  1  6
 25 26  1  0
 26 27  1  0
 27 28  1  6
 27 29  1  0
 29 30  1  1
 31 30  1  6
 31 32  1  0
 32 33  1  0
 33 34  1  1
 33 35  1  0
 33 36  1  0
 36 37  1  6
 37 38  1  0
 38 39  2  0
 38 40  1  0
 40 41  1  0
 40 42  1  0
 42 43  1  0
 36 44  1  0
 44 45  1  1
 44 46  1  0
 29 47  1  0
 47 48  1  6
 48 49  1  0
 48 50  1  0
 47 51  1  0
 51 52  1  1
 23 53  1  0
 53 54  1  1
 54 55  1  0
 55 56  2  0
 53 57  1  0
 57 58  1  0
 58 59  1  1
 58  6  1  0
 51 25  1  0
 46 31  1  0
M  END
>  <ChEMBL_IDs>  (36) 
CHEMBL3244599

>  <target_organism>  (36) 
None

>  <target_molecule_pref_name>  (36) 
None

>  <# Known Targets>  (36) 
1.0

>  <Known Targets>  (36) 
CHEMBL612545

>  <smiles>  (36) 
CCC(=O)O[C@H]1/C=C/C=C/C[C@@H](C)OC(=O)C[C@@H](O)[C@H](OC)[C@@H](O[C@@H]2O[C@H](C)[C@@H](O[C@H]3C[C@@](C)(O)[C@@H](OC(=O)C(C)CC)[C@H](C)O3)[C@H](N(C)C)[C@H]2O)[C@@H](CC=O)C[C@H]1C

$$$$

     RDKit          2D

 59 61  0  0  0  0  0  0  0  0999 V2000
   16.4157   -9.6117    0.0000 C   0  0  0  0  0  0  0  0  0  0  0  0
   15.0299   -9.0377    0.0000 C   0  0  0  0  0  0  0  0  0  0  0  0
   13.8398   -9.9509    0.0000 C   0  0  0  0  0  0  0  0  0  0  0  0
   12.4540   -9.3768    0.0000 C   0  0  0  0  0  0  0  0  0  0  0  0
   12.2582   -7.8897    0.0000 O   0  0  0  0  0  0  0  0  0  0  0  0
   11.2640  -10.2900    0.0000 O   0  0  0  0  0  0  0  0  0  0  0  0
    9.8782   -9.7159    0.0000 C   0  0  0  0  0  0  0  0  0  0  0  0
    9.6824   -8.2288    0.0000 C   0  0  0  0  0  0  0  0  0  0  0  0
   10.8724   -7.3156    0.0000 C   0  0  0  0  0  0  0  0  0  0  0  0
    8.2966   -7.6548    0.0000 O   0  0  0  0  0  0  0  0  0  0  0  0
    7.1065   -8.5679    0.0000 C   0  0  0  0  0  0  0  0  0  0  0  0
    5.7207   -7.9939    0.0000 O   0  0  0  0  0  0  0  0  0  0  0  0
    5.5249   -6.5067    0.0000 C   0  0  0  0  0  0  0  0  0  0  0  0
    4.1391   -5.9327    0.0000 C   0  0  0  0  0  0  0  0  0  0  0  0
    2.9491   -6.8458    0.0000 C   0  0  0  0  0  0  0  0  0  0  0  0
    3.9433   -4.4455    0.0000 O   0  0  0  0  0  0  0  0  0  0  0  0
    5.1333   -3.5324    0.0000 C   0  0  0  0  0  0  0  0  0  0  0  0
    4.9376   -2.0452    0.0000 O   0  0  0  0  0  0  0  0  0  0  0  0
    3.5517   -1.4712    0.0000 C   0  0  0  0  0  0  0  0  0  0  0  0
    3.8444    0.0000    0.0000 C   0  0  0  0  0  0  0  0  0  0  0  0
    5.3444    0.0000    0.0000 O   0  0  0  0  0  0  0  0  0  0  0  0
    6.0944   -1.2990    0.0000 C   0  0  0  0  0  0  0  0  0  0  0  0
    3.5517    1.4712    0.0000 C   0  0  0  0  0  0  0  0  0  0  0  0
    4.9376    2.0452    0.0000 O   0  0  0  0  0  0  0  0  0  0  0  0
    2.7184    2.7184    0.0000 C   0  0  0  0  0  0  0  0  0  0  0  0
    1.4712    3.5517    0.0000 C   0  0  0  0  0  0  0  0  0  0  0  0
    2.0452    4.9376    0.0000 O   0  0  0  0  0  0  0  0  0  0  0  0
    0.0000    3.8444    0.0000 O   0  0  0  0  0  0  0  0  0  0  0  0
   -1.4712    3.5517    0.0000 C   0  0  0  0  0  0  0  0  0  0  0  0
   -2.0452    4.9376    0.0000 C   0  0  0  0  0  0  0  0  0  0  0  0
   -2.7184    2.7184    0.0000 C   0  0  0  0  0  0  0  0  0  0  0  0
   -3.5517    1.4712    0.0000 C   0  0  0  0  0  0  0  0  0  0  0  0
   -3.8444    0.0000    0.0000 C   0  0  0  0  0  0  0  0  0  0  0  0
   -3.5517   -1.4712    0.0000 C   0  0  0  0  0  0  0  0  0  0  0  0
   -2.7184   -2.7184    0.0000 C   0  0  0  0  0  0  0  0  0  0  0  0
   -1.4712   -3.5517    0.0000 C   0  0  0  0  0  0  0  0  0  0  0  0
   -2.0452   -4.9376    0.0000 O   0  0  0  0  0  0  0  0  0  0  0  0
   -3.5324   -5.1333    0.0000 C   0  0  0  0  0  0  0  0  0  0  0  0
   -4.4455   -3.9433    0.0000 O   0  0  0  0  0  0  0  0  0  0  0  0
   -4.1064   -6.5192    0.0000 C   0  0  0  0  0  0  0  0  0  0  0  0
   -5.5936   -6.7150    0.0000 C   0  0  0  0  0  0  0  0  0  0  0  0
   -6.1676   -8.1008    0.0000 C   0  0  0  0  0  0  0  0  0  0  0  0
   -0.0000   -3.8444    0.0000 C   0  0  0  0  0  0  0  0  0  0  0  0
   -0.0000   -5.3444    0.0000 C   0  0  0  0  0  0  0  0  0  0  0  0
    1.4712   -3.5517    0.0000 C   0  0  0  0  0  0  0  0  0  0  0  0
    2.7184   -2.7184    0.0000 C   0  0  0  0  0  0  0  0  0  0  0  0
    3.7790   -3.7790    0.0000 C   0  0  0  0  0  0  0  0  0  0  0  0
    3.3908   -5.2279    0.0000 C   0  0  0  0  0  0  0  0  0  0  0  0
    4.1633   -6.5137    0.0000 O   0  0  0  0  0  0  0  0  0  0  0  0
    6.5192   -4.1064    0.0000 C   0  0  0  0  0  0  0  0  0  0  0  0
    7.7092   -3.1933    0.0000 O   0  0  0  0  0  0  0  0  0  0  0  0
    6.7150   -5.5936    0.0000 C   0  0  0  0  0  0  0  0  0  0  0  0
    8.1008   -6.1676    0.0000 N   0  0  0  0  0  0  0  0  0  0  0  0
    9.2908   -5.2544    0.0000 C   0  0  0  0  0  0  0  0  0  0  0  0
    8.6506   -7.5632    0.0000 C   0  0  0  0  0  0  0  0  0  0  0  0
    7.3023  -10.0551    0.0000 C   0  0  0  0  0  0  0  0  0  0  0  0
    8.6881  -10.6291    0.0000 C   0  0  0  0  0  0  0  0  0  0  0  0
    7.8822  -11.8942    0.0000 C   0  0  0  0  0  0  0  0  0  0  0  0
    9.7941  -11.6425    0.0000 O   0  0  0  0  0  0  0  0  0  0  0  0
  1  2  1  0
  2  3  1  0
  3  4  1  0
  4  5  2  0
  4  6  1  0
  7  6  1  6
  7  8  1  0
  8  9  1  1
  8 10  1  0
 10 11  1  0
 11 12  1  6
 13 12  1  6
 13 14  1  0
 14 15  1  1
 14 16  1  0
 16 17  1  0
 17 18  1  1
 19 18  1  1
 19 20  1  0
 20 21  1  6
 21 22  1  0
 20 23  1  0
 23 24  1  1
 23 25  1  0
 25 26  1  0
 26 27  2  0
 26 28  1  0
 28 29  1  0
 29 30  1  1
 29 31  1  0
 31 32  1  0
 32 33  2  0
 33 34  1  0
 34 35  2  0
 35 36  1  0
 36 37  1  1
 37 38  1  0
 38 39  2  0
 38 40  1  0
 40 41  1  0
 41 42  1  0
 36 43  1  0
 43 44  1  1
 43 45  1  0
 45 46  1  0
 46 47  1  1
 47 48  1  0
 48 49  2  0
 17 50  1  0
 50 51  1  6
 50 52  1  0
 52 53  1  1
 53 54  1  0
 53 55  1  0
 11 56  1  0
 56 57  1  0
 57 58  1  1
 57 59  1  0
 57  7  1  0
 52 13  1  0
 46 19  1  0
M  END
>  <ChEMBL_IDs>  (37) 
CHEMBL3251868

>  <target_organism>  (37) 
Homo sapiens

>  <target_molecule_pref_name>  (37) 
None

>  <# Known Targets>  (37) 
1.0

>  <Known Targets>  (37) 
CHEMBL612545

>  <smiles>  (37) 
CCCC(=O)O[C@H]1[C@H](C)O[C@@H](O[C@@H]2[C@@H](C)O[C@@H](O[C@@H]3[C@@H](OC)[C@H](O)CC(=O)O[C@H](C)C/C=C/C=C/[C@H](OC(=O)CCC)[C@H](C)C[C@@H]3CC=O)[C@H](O)[C@H]2N(C)C)C[C@@]1(C)O

$$$$

     RDKit          2D

 61 63  0  0  0  0  0  0  0  0999 V2000
   18.4042   -4.8111    0.0000 C   0  0  0  0  0  0  0  0  0  0  0  0
   17.0184   -4.2371    0.0000 C   0  0  0  0  0  0  0  0  0  0  0  0
   16.8226   -2.7499    0.0000 C   0  0  0  0  0  0  0  0  0  0  0  0
   15.4367   -2.1759    0.0000 C   0  0  0  0  0  0  0  0  0  0  0  0
   14.2467   -3.0890    0.0000 O   0  0  0  0  0  0  0  0  0  0  0  0
   15.2410   -0.6887    0.0000 O   0  0  0  0  0  0  0  0  0  0  0  0
   13.8551   -0.1147    0.0000 C   0  0  0  0  0  0  0  0  0  0  0  0
   12.6651   -1.0279    0.0000 C   0  0  0  0  0  0  0  0  0  0  0  0
   12.8609   -2.5150    0.0000 C   0  0  0  0  0  0  0  0  0  0  0  0
   11.2793   -0.4538    0.0000 O   0  0  0  0  0  0  0  0  0  0  0  0
   11.0835    1.0333    0.0000 C   0  0  0  0  0  0  0  0  0  0  0  0
    9.6977    1.6074    0.0000 O   0  0  0  0  0  0  0  0  0  0  0  0
    8.5076    0.6942    0.0000 C   0  0  0  0  0  0  0  0  0  0  0  0
    7.1218    1.2682    0.0000 C   0  0  0  0  0  0  0  0  0  0  0  0
    6.9260    2.7554    0.0000 N   0  0  0  0  0  0  0  0  0  0  0  0
    8.1161    3.6686    0.0000 C   0  0  0  0  0  0  0  0  0  0  0  0
    6.2853    3.2296    0.0000 C   0  0  0  0  0  0  0  0  0  0  0  0
    5.9318    0.3551    0.0000 C   0  0  0  0  0  0  0  0  0  0  0  0
    4.5460    0.9291    0.0000 O   0  0  0  0  0  0  0  0  0  0  0  0
    4.3502    2.4163    0.0000 C   0  0  0  0  0  0  0  0  0  0  0  0
    3.1445    3.3086    0.0000 O   0  0  0  0  0  0  0  0  0  0  0  0
    5.5402    3.3294    0.0000 C   0  0  0  0  0  0  0  0  0  0  0  0
    5.3444    4.8166    0.0000 C   0  0  0  0  0  0  0  0  0  0  0  0
    6.5345    5.7298    0.0000 C   0  0  0  0  0  0  0  0  0  0  0  0
    7.9203    5.1557    0.0000 O   0  0  0  0  0  0  0  0  0  0  0  0
    6.3387    7.2169    0.0000 O   0  0  0  0  0  0  0  0  0  0  0  0
    6.1276   -1.1321    0.0000 C   0  0  0  0  0  0  0  0  0  0  0  0
    4.9376   -2.0452    0.0000 O   0  0  0  0  0  0  0  0  0  0  0  0
    3.5517   -1.4712    0.0000 C   0  0  0  0  0  0  0  0  0  0  0  0
    3.8444    0.0000    0.0000 C   0  0  0  0  0  0  0  0  0  0  0  0
    5.3444    0.0000    0.0000 O   0  0  0  0  0  0  0  0  0  0  0  0
    6.3864   -1.0790    0.0000 C   0  0  0  0  0  0  0  0  0  0  0  0
    3.5517    1.4712    0.0000 C   0  0  0  0  0  0  0  0  0  0  0  0
    4.7575    2.3635    0.0000 O   0  0  0  0  0  0  0  0  0  0  0  0
    2.7184    2.7184    0.0000 C   0  0  0  0  0  0  0  0  0  0  0  0
    1.4712    3.5517    0.0000 C   0  0  0  0  0  0  0  0  0  0  0  0
    2.0452    4.9376    0.0000 O   0  0  0  0  0  0  0  0  0  0  0  0
    0.0000    3.8444    0.0000 O   0  0  0  0  0  0  0  0  0  0  0  0
   -1.4712    3.5517    0.0000 C   0  0  0  0  0  0  0  0  0  0  0  0
   -2.0452    4.9376    0.0000 C   0  0  0  0  0  0  0  0  0  0  0  0
   -2.7184    2.7184    0.0000 C   0  0  0  0  0  0  0  0  0  0  0  0
   -3.5517    1.4712    0.0000 C   0  0  0  0  0  0  0  0  0  0  0  0
   -3.8444    0.0000    0.0000 C   0  0  0  0  0  0  0  0  0  0  0  0
   -3.5517   -1.4712    0.0000 C   0  0  0  0  0  0  0  0  0  0  0  0
   -2.7184   -2.7184    0.0000 C   0  0  0  0  0  0  0  0  0  0  0  0
   -1.4712   -3.5517    0.0000 C   0  0  0  0  0  0  0  0  0  0  0  0
   -2.0452   -4.9376    0.0000 O   0  0  0  0  0  0  0  0  0  0  0  0
   -0.0000   -3.8444    0.0000 C   0  0  0  0  0  0  0  0  0  0  0  0
   -0.0000   -5.3444    0.0000 C   0  0  0  0  0  0  0  0  0  0  0  0
    1.4712   -3.5517    0.0000 C   0  0  0  0  0  0  0  0  0  0  0  0
    2.7184   -2.7184    0.0000 C   0  0  0  0  0  0  0  0  0  0  0  0
    3.7790   -3.7790    0.0000 C   0  0  0  0  0  0  0  0  0  0  0  0
    3.3908   -5.2279    0.0000 C   0  0  0  0  0  0  0  0  0  0  0  0
    4.4515   -6.2886    0.0000 O   0  0  0  0  0  0  0  0  0  0  0  0
    7.5134   -1.7061    0.0000 O   0  0  0  0  0  0  0  0  0  0  0  0
    8.7034   -0.7929    0.0000 C   0  0  0  0  0  0  0  0  0  0  0  0
   10.0893   -1.3670    0.0000 C   0  0  0  0  0  0  0  0  0  0  0  0
   12.2735    1.9465    0.0000 C   0  0  0  0  0  0  0  0  0  0  0  0
   13.6593    1.3725    0.0000 C   0  0  0  0  0  0  0  0  0  0  0  0
   13.9840    2.8369    0.0000 C   0  0  0  0  0  0  0  0  0  0  0  0
   15.1579    1.3070    0.0000 O   0  0  0  0  0  0  0  0  0  0  0  0
  1  2  1  0
  2  3  1  0
  3  4  1  0
  4  5  2  0
  4  6  1  0
  7  6  1  1
  7  8  1  0
  8  9  1  6
  8 10  1  0
 10 11  1  0
 11 12  1  1
 13 12  1  6
 13 14  1  0
 14 15  1  1
 15 16  1  0
 15 17  1  0
 14 18  1  0
 18 19  1  6
 19 20  1  0
 20 21  2  0
 20 22  1  0
 22 23  1  0
 23 24  1  0
 24 25  2  0
 24 26  1  0
 18 27  1  0
 27 28  1  1
 29 28  1  1
 29 30  1  0
 30 31  1  6
 31 32  1  0
 30 33  1  0
 33 34  1  1
 33 35  1  0
 35 36  1  0
 36 37  2  0
 36 38  1  0
 38 39  1  0
 39 40  1  1
 39 41  1  0
 41 42  1  0
 42 43  2  0
 43 44  1  0
 44 45  2  0
 45 46  1  0
 46 47  1  1
 46 48  1  0
 48 49  1  1
 48 50  1  0
 50 51  1  0
 51 52  1  1
 52 53  1  0
 53 54  2  0
 27 55  1  0
 55 56  1  0
 56 57  1  1
 11 58  1  0
 58 59  1  0
 59 60  1  6
 59 61  1  0
 59  7  1  0
 56 13  1  0
 51 29  1  0
M  END
>  <ChEMBL_IDs>  (38) 
CHEMBL3244432

>  <target_organism>  (38) 
None

>  <target_molecule_pref_name>  (38) 
None

>  <# Known Targets>  (38) 
1.0

>  <Known Targets>  (38) 
CHEMBL612545

>  <smiles>  (38) 
CCCC(=O)O[C@H]1[C@H](C)O[C@@H](O[C@H]2[C@H](N(C)C)[C@@H](OC(=O)CCC(=O)O)[C@H](O[C@@H]3[C@@H](OC)[C@H](O)CC(=O)O[C@H](C)C/C=C/C=C/[C@H](O)[C@H](C)C[C@@H]3CC=O)O[C@@H]2C)C[C@@]1(C)O

$$$$

     RDKit          2D

 60 62  0  0  0  0  0  0  0  0999 V2000
   18.4042   -4.8111    0.0000 C   0  0  0  0  0  0  0  0  0  0  0  0
   17.0184   -4.2371    0.0000 C   0  0  0  0  0  0  0  0  0  0  0  0
   16.8226   -2.7499    0.0000 C   0  0  0  0  0  0  0  0  0  0  0  0
   15.4367   -2.1759    0.0000 C   0  0  0  0  0  0  0  0  0  0  0  0
   14.2467   -3.0890    0.0000 O   0  0  0  0  0  0  0  0  0  0  0  0
   15.2410   -0.6887    0.0000 O   0  0  0  0  0  0  0  0  0  0  0  0
   13.8551   -0.1147    0.0000 C   0  0  0  0  0  0  0  0  0  0  0  0
   12.6651   -1.0279    0.0000 C   0  0  0  0  0  0  0  0  0  0  0  0
   12.8609   -2.5150    0.0000 C   0  0  0  0  0  0  0  0  0  0  0  0
   11.2793   -0.4538    0.0000 O   0  0  0  0  0  0  0  0  0  0  0  0
   11.0835    1.0333    0.0000 C   0  0  0  0  0  0  0  0  0  0  0  0
    9.6977    1.6074    0.0000 O   0  0  0  0  0  0  0  0  0  0  0  0
    8.5076    0.6942    0.0000 C   0  0  0  0  0  0  0  0  0  0  0  0
    7.1218    1.2682    0.0000 C   0  0  0  0  0  0  0  0  0  0  0  0
    6.9260    2.7554    0.0000 N   0  0  0  0  0  0  0  0  0  0  0  0
    8.1161    3.6686    0.0000 C   0  0  0  0  0  0  0  0  0  0  0  0
    5.5402    3.3294    0.0000 C   0  0  0  0  0  0  0  0  0  0  0  0
    5.9318    0.3551    0.0000 C   0  0  0  0  0  0  0  0  0  0  0  0
    4.5460    0.9291    0.0000 O   0  0  0  0  0  0  0  0  0  0  0  0
    3.3559    0.0160    0.0000 C   0  0  0  0  0  0  0  0  0  0  0  0
    1.9701    0.5900    0.0000 C   0  0  0  0  0  0  0  0  0  0  0  0
    3.5517   -1.4712    0.0000 O   0  0  0  0  0  0  0  0  0  0  0  0
    6.1276   -1.1321    0.0000 C   0  0  0  0  0  0  0  0  0  0  0  0
    4.9376   -2.0452    0.0000 O   0  0  0  0  0  0  0  0  0  0  0  0
    5.1333   -3.5324    0.0000 C   0  0  0  0  0  0  0  0  0  0  0  0
    6.6301   -3.6305    0.0000 C   0  0  0  0  0  0  0  0  0  0  0  0
    7.0184   -2.1816    0.0000 O   0  0  0  0  0  0  0  0  0  0  0  0
    8.4673   -1.7934    0.0000 C   0  0  0  0  0  0  0  0  0  0  0  0
    7.9754   -4.2939    0.0000 C   0  0  0  0  0  0  0  0  0  0  0  0
    8.8886   -3.1039    0.0000 O   0  0  0  0  0  0  0  0  0  0  0  0
   10.3758   -3.2997    0.0000 C   0  0  0  0  0  0  0  0  0  0  0  0
   11.2889   -2.1096    0.0000 C   0  0  0  0  0  0  0  0  0  0  0  0
   10.9498   -4.6855    0.0000 O   0  0  0  0  0  0  0  0  0  0  0  0
    8.9645   -5.4217    0.0000 C   0  0  0  0  0  0  0  0  0  0  0  0
    9.4466   -6.8421    0.0000 C   0  0  0  0  0  0  0  0  0  0  0  0
   10.9338   -6.6463    0.0000 O   0  0  0  0  0  0  0  0  0  0  0  0
    9.3485   -8.3389    0.0000 O   0  0  0  0  0  0  0  0  0  0  0  0
    8.6851   -9.6842    0.0000 C   0  0  0  0  0  0  0  0  0  0  0  0
    9.8751  -10.5973    0.0000 C   0  0  0  0  0  0  0  0  0  0  0  0
    7.5573  -10.6732    0.0000 C   0  0  0  0  0  0  0  0  0  0  0  0
    6.1369  -11.1553    0.0000 C   0  0  0  0  0  0  0  0  0  0  0  0
    4.6401  -11.0572    0.0000 C   0  0  0  0  0  0  0  0  0  0  0  0
    3.2948  -10.3938    0.0000 C   0  0  0  0  0  0  0  0  0  0  0  0
    2.3058   -9.2660    0.0000 C   0  0  0  0  0  0  0  0  0  0  0  0
    1.8237   -7.8456    0.0000 C   0  0  0  0  0  0  0  0  0  0  0  0
    0.3365   -8.0414    0.0000 O   0  0  0  0  0  0  0  0  0  0  0  0
    1.9218   -6.3489    0.0000 C   0  0  0  0  0  0  0  0  0  0  0  0
    0.4729   -5.9606    0.0000 C   0  0  0  0  0  0  0  0  0  0  0  0
    2.5852   -5.0035    0.0000 C   0  0  0  0  0  0  0  0  0  0  0  0
    3.7130   -4.0145    0.0000 C   0  0  0  0  0  0  0  0  0  0  0  0
    2.9630   -2.7155    0.0000 C   0  0  0  0  0  0  0  0  0  0  0  0
    1.4630   -2.7155    0.0000 C   0  0  0  0  0  0  0  0  0  0  0  0
    0.7130   -1.4165    0.0000 O   0  0  0  0  0  0  0  0  0  0  0  0
    7.5134   -1.7061    0.0000 O   0  0  0  0  0  0  0  0  0  0  0  0
    8.7034   -0.7929    0.0000 C   0  0  0  0  0  0  0  0  0  0  0  0
   10.0893   -1.3670    0.0000 C   0  0  0  0  0  0  0  0  0  0  0  0
   12.2735    1.9465    0.0000 C   0  0  0  0  0  0  0  0  0  0  0  0
   13.6593    1.3725    0.0000 C   0  0  0  0  0  0  0  0  0  0  0  0
   13.9840    2.8369    0.0000 C   0  0  0  0  0  0  0  0  0  0  0  0
   15.1579    1.3070    0.0000 O   0  0  0  0  0  0  0  0  0  0  0  0
  1  2  1  0
  2  3  1  0
  3  4  1  0
  4  5  2  0
  4  6  1  0
  7  6  1  1
  7  8  1  0
  8  9  1  6
  8 10  1  0
 10 11  1  0
 11 12  1  1
 13 12  1  6
 13 14  1  0
 14 15  1  1
 15 16  1  0
 15 17  1  0
 14 18  1  0
 18 19  1  6
 19 20  1  0
 20 21  1  0
 20 22  2  0
 18 23  1  0
 23 24  1  1
 25 24  1  6
 25 26  1  0
 26 27  1  1
 27 28  1  0
 26 29  1  0
 29 30  1  6
 30 31  1  0
 31 32  1  0
 31 33  2  0
 29 34  1  0
 34 35  1  0
 35 36  2  0
 35 37  1  0
 37 38  1  0
 38 39  1  6
 38 40  1  0
 40 41  1  0
 41 42  2  0
 42 43  1  0
 43 44  2  0
 44 45  1  0
 45 46  1  6
 45 47  1  0
 47 48  1  6
 47 49  1  0
 49 50  1  0
 50 51  1  6
 51 52  1  0
 52 53  2  0
 23 54  1  0
 54 55  1  0
 55 56  1  1
 11 57  1  0
 57 58  1  0
 58 59  1  6
 58 60  1  0
 58  7  1  0
 55 13  1  0
 50 25  1  0
M  END
>  <ChEMBL_IDs>  (39) 
CHEMBL3251872

>  <target_organism>  (39) 
Homo sapiens

>  <target_molecule_pref_name>  (39) 
None

>  <# Known Targets>  (39) 
1.0

>  <Known Targets>  (39) 
CHEMBL612545

>  <smiles>  (39) 
CCCC(=O)O[C@H]1[C@H](C)O[C@@H](O[C@H]2[C@H](N(C)C)[C@@H](OC(C)=O)[C@H](O[C@@H]3[C@@H](OC)[C@H](OC(C)=O)CC(=O)O[C@H](C)C/C=C/C=C/[C@H](O)[C@H](C)C[C@@H]3CC=O)O[C@@H]2C)C[C@@]1(C)O

$$$$

     RDKit          2D

 60 62  0  0  0  0  0  0  0  0999 V2000
   12.6073    5.1962    0.0000 C   0  0  0  0  0  0  0  0  0  0  0  0
   11.8573    3.8971    0.0000 C   0  0  0  0  0  0  0  0  0  0  0  0
   10.3573    3.8971    0.0000 N   0  0  0  0  0  0  0  0  0  0  0  0
    9.6073    2.5981    0.0000 C   0  0  0  0  0  0  0  0  0  0  0  0
   10.3573    1.2990    0.0000 O   0  0  0  0  0  0  0  0  0  0  0  0
    8.1073    2.5981    0.0000 N   0  0  0  0  0  0  0  0  0  0  0  0
    7.3573    1.2990    0.0000 C   0  0  0  0  0  0  0  0  0  0  0  0
    5.8573    1.2990    0.0000 C   0  0  0  0  0  0  0  0  0  0  0  0
    5.1073    0.0000    0.0000 C   0  0  0  0  0  0  0  0  0  0  0  0
    3.6073    0.0000    0.0000 N   0  0  0  0  0  0  0  0  0  0  0  0
    3.2954    1.4672    0.0000 C   0  0  0  0  0  0  0  0  0  0  0  0
    2.4138    2.6807    0.0000 C   0  0  0  0  0  0  0  0  0  0  0  0
    3.4175    3.7955    0.0000 C   0  0  0  0  0  0  0  0  0  0  0  0
    1.1147    3.4307    0.0000 C   0  0  0  0  0  0  0  0  0  0  0  0
   -0.3771    3.5875    0.0000 C   0  0  0  0  0  0  0  0  0  0  0  0
   -1.3412    4.7366    0.0000 C   0  0  0  0  0  0  0  0  0  0  0  0
    0.3271    4.9120    0.0000 O   0  0  0  0  0  0  0  0  0  0  0  0
   -1.8037    3.1240    0.0000 C   0  0  0  0  0  0  0  0  0  0  0  0
   -2.5537    4.4231    0.0000 O   0  0  0  0  0  0  0  0  0  0  0  0
   -1.8037    5.7221    0.0000 C   0  0  0  0  0  0  0  0  0  0  0  0
   -0.3037    5.7221    0.0000 O   0  0  0  0  0  0  0  0  0  0  0  0
    0.4463    7.0211    0.0000 C   0  0  0  0  0  0  0  0  0  0  0  0
    1.9463    7.0211    0.0000 C   0  0  0  0  0  0  0  0  0  0  0  0
   -0.3037    8.3202    0.0000 C   0  0  0  0  0  0  0  0  0  0  0  0
   -1.8037    8.3202    0.0000 C   0  0  0  0  0  0  0  0  0  0  0  0
   -2.5537    9.6192    0.0000 N   0  0  0  0  0  0  0  0  0  0  0  0
   -1.8037   10.9182    0.0000 C   0  0  0  0  0  0  0  0  0  0  0  0
   -4.0537    9.6192    0.0000 C   0  0  0  0  0  0  0  0  0  0  0  0
   -2.5537    7.0211    0.0000 C   0  0  0  0  0  0  0  0  0  0  0  0
   -4.0537    7.0211    0.0000 O   0  0  0  0  0  0  0  0  0  0  0  0
   -2.9184    2.1203    0.0000 C   0  0  0  0  0  0  0  0  0  0  0  0
   -4.1319    3.0020    0.0000 C   0  0  0  0  0  0  0  0  0  0  0  0
   -3.5285    0.7500    0.0000 C   0  0  0  0  0  0  0  0  0  0  0  0
   -4.9957    1.0619    0.0000 O   0  0  0  0  0  0  0  0  0  0  0  0
   -5.9994   -0.0528    0.0000 C   0  0  0  0  0  0  0  0  0  0  0  0
   -7.4666    0.2590    0.0000 C   0  0  0  0  0  0  0  0  0  0  0  0
   -8.4703   -0.8557    0.0000 C   0  0  0  0  0  0  0  0  0  0  0  0
   -9.7947   -1.5599    0.0000 C   0  0  0  0  0  0  0  0  0  0  0  0
   -9.3938    0.3263    0.0000 O   0  0  0  0  0  0  0  0  0  0  0  0
  -10.8792    0.1176    0.0000 C   0  0  0  0  0  0  0  0  0  0  0  0
   -8.0068   -2.2823    0.0000 C   0  0  0  0  0  0  0  0  0  0  0  0
   -9.0105   -3.3970    0.0000 O   0  0  0  0  0  0  0  0  0  0  0  0
   -6.5396   -2.5942    0.0000 C   0  0  0  0  0  0  0  0  0  0  0  0
   -6.0760   -4.0207    0.0000 C   0  0  0  0  0  0  0  0  0  0  0  0
   -5.5359   -1.4794    0.0000 O   0  0  0  0  0  0  0  0  0  0  0  0
   -3.5285   -0.7500    0.0000 C   0  0  0  0  0  0  0  0  0  0  0  0
   -4.7418   -1.3419    0.0000 C   0  0  0  0  0  0  0  0  0  0  0  0
   -2.9184   -2.1203    0.0000 C   0  0  0  0  0  0  0  0  0  0  0  0
   -4.1319   -3.0020    0.0000 O   0  0  0  0  0  0  0  0  0  0  0  0
   -1.8037   -3.1240    0.0000 O   0  0  0  0  0  0  0  0  0  0  0  0
   -0.3771   -3.5875    0.0000 C   0  0  0  0  0  0  0  0  0  0  0  0
   -0.5339   -5.0793    0.0000 C   0  0  0  0  0  0  0  0  0  0  0  0
   -1.9042   -5.6894    0.0000 C   0  0  0  0  0  0  0  0  0  0  0  0
    1.1147   -3.4307    0.0000 C   0  0  0  0  0  0  0  0  0  0  0  0
    2.2967   -4.3542    0.0000 C   0  0  0  0  0  0  0  0  0  0  0  0
    0.7013   -4.8726    0.0000 O   0  0  0  0  0  0  0  0  0  0  0  0
    2.4138   -2.6807    0.0000 C   0  0  0  0  0  0  0  0  0  0  0  0
    3.4175   -3.7955    0.0000 O   0  0  0  0  0  0  0  0  0  0  0  0
    3.2954   -1.4672    0.0000 C   0  0  0  0  0  0  0  0  0  0  0  0
    4.6658   -2.0773    0.0000 C   0  0  0  0  0  0  0  0  0  0  0  0
  1  2  1  0
  2  3  1  0
  3  4  1  0
  4  5  2  0
  4  6  1  0
  6  7  1  0
  7  8  1  0
  8  9  1  0
  9 10  1  0
 10 11  1  0
 11 12  1  0
 12 13  1  1
 12 14  1  0
 14 15  1  0
 15 16  1  1
 15 17  1  0
 15 18  1  0
 18 19  1  1
 20 19  1  1
 20 21  1  0
 21 22  1  0
 22 23  1  1
 22 24  1  0
 24 25  1  0
 25 26  1  1
 26 27  1  0
 26 28  1  0
 25 29  1  0
 29 30  1  6
 18 31  1  0
 31 32  1  6
 31 33  1  0
 33 34  1  1
 35 34  1  6
 35 36  1  0
 36 37  1  0
 37 38  1  1
 37 39  1  0
 39 40  1  0
 37 41  1  0
 41 42  1  6
 41 43  1  0
 43 44  1  1
 43 45  1  0
 33 46  1  0
 46 47  1  6
 46 48  1  0
 48 49  2  0
 48 50  1  0
 50 51  1  0
 51 52  1  1
 52 53  1  0
 51 54  1  0
 54 55  1  1
 54 56  1  0
 54 57  1  0
 57 58  1  1
 57 59  1  0
 59 60  1  6
 59 10  1  0
 29 20  1  0
 45 35  1  0
M  END
>  <ChEMBL_IDs>  (40) 
CHEMBL1682724

>  <target_organism>  (40) 
Homo sapiens,None,Escherichia coli K-12

>  <target_molecule_pref_name>  (40) 
None

>  <# Known Targets>  (40) 
1.0

>  <Known Targets>  (40) 
CHEMBL364

>  <smiles>  (40) 
CCNC(=O)NCCCN1C[C@H](C)C[C@@](C)(O)[C@H](O[C@@H]2O[C@H](C)C[C@H](N(C)C)[C@H]2O)[C@@H](C)[C@H](O[C@H]2C[C@@](C)(OC)[C@@H](O)[C@H](C)O2)[C@@H](C)C(=O)O[C@H](CC)[C@@](C)(O)[C@H](O)[C@H]1C

$$$$

     RDKit          2D

 68 70  0  0  0  0  0  0  0  0999 V2000
   18.4042   -4.8111    0.0000 C   0  0  0  0  0  0  0  0  0  0  0  0
   17.0184   -4.2371    0.0000 C   0  0  0  0  0  0  0  0  0  0  0  0
   16.8226   -2.7499    0.0000 C   0  0  0  0  0  0  0  0  0  0  0  0
   15.4367   -2.1759    0.0000 C   0  0  0  0  0  0  0  0  0  0  0  0
   14.2467   -3.0890    0.0000 O   0  0  0  0  0  0  0  0  0  0  0  0
   15.2410   -0.6887    0.0000 O   0  0  0  0  0  0  0  0  0  0  0  0
   13.8551   -0.1147    0.0000 C   0  0  0  0  0  0  0  0  0  0  0  0
   12.6651   -1.0279    0.0000 C   0  0  0  0  0  0  0  0  0  0  0  0
   12.8609   -2.5150    0.0000 C   0  0  0  0  0  0  0  0  0  0  0  0
   11.2793   -0.4538    0.0000 O   0  0  0  0  0  0  0  0  0  0  0  0
   11.0835    1.0333    0.0000 C   0  0  0  0  0  0  0  0  0  0  0  0
    9.6977    1.6074    0.0000 O   0  0  0  0  0  0  0  0  0  0  0  0
    8.5076    0.6942    0.0000 C   0  0  0  0  0  0  0  0  0  0  0  0
    7.1218    1.2682    0.0000 C   0  0  0  0  0  0  0  0  0  0  0  0
    6.9260    2.7554    0.0000 N   0  0  0  0  0  0  0  0  0  0  0  0
    6.2853    3.2296    0.0000 C   0  0  0  0  0  0  0  0  0  0  0  0
    8.1161    3.6686    0.0000 C   0  0  0  0  0  0  0  0  0  0  0  0
    5.9318    0.3551    0.0000 C   0  0  0  0  0  0  0  0  0  0  0  0
    4.5460    0.9291    0.0000 O   0  0  0  0  0  0  0  0  0  0  0  0
    4.3502    2.4163    0.0000 C   0  0  0  0  0  0  0  0  0  0  0  0
    3.1445    3.3086    0.0000 O   0  0  0  0  0  0  0  0  0  0  0  0
    5.5402    3.3294    0.0000 C   0  0  0  0  0  0  0  0  0  0  0  0
    5.3444    4.8166    0.0000 C   0  0  0  0  0  0  0  0  0  0  0  0
    6.5345    5.7298    0.0000 C   0  0  0  0  0  0  0  0  0  0  0  0
    7.9203    5.1557    0.0000 O   0  0  0  0  0  0  0  0  0  0  0  0
    6.3387    7.2169    0.0000 O   0  0  0  0  0  0  0  0  0  0  0  0
    6.1276   -1.1321    0.0000 C   0  0  0  0  0  0  0  0  0  0  0  0
    4.9376   -2.0452    0.0000 O   0  0  0  0  0  0  0  0  0  0  0  0
    3.5517   -1.4712    0.0000 C   0  0  0  0  0  0  0  0  0  0  0  0
    3.8444    0.0000    0.0000 C   0  0  0  0  0  0  0  0  0  0  0  0
    5.3444    0.0000    0.0000 O   0  0  0  0  0  0  0  0  0  0  0  0
    6.3864   -1.0790    0.0000 C   0  0  0  0  0  0  0  0  0  0  0  0
    3.5517    1.4712    0.0000 C   0  0  0  0  0  0  0  0  0  0  0  0
    4.7575    2.3635    0.0000 O   0  0  0  0  0  0  0  0  0  0  0  0
    2.7184    2.7184    0.0000 C   0  0  0  0  0  0  0  0  0  0  0  0
    1.4712    3.5517    0.0000 C   0  0  0  0  0  0  0  0  0  0  0  0
    2.0452    4.9376    0.0000 O   0  0  0  0  0  0  0  0  0  0  0  0
    0.0000    3.8444    0.0000 O   0  0  0  0  0  0  0  0  0  0  0  0
   -1.4712    3.5517    0.0000 C   0  0  0  0  0  0  0  0  0  0  0  0
   -2.0452    4.9376    0.0000 C   0  0  0  0  0  0  0  0  0  0  0  0
   -2.7184    2.7184    0.0000 C   0  0  0  0  0  0  0  0  0  0  0  0
   -3.5517    1.4712    0.0000 C   0  0  0  0  0  0  0  0  0  0  0  0
   -3.8444    0.0000    0.0000 C   0  0  0  0  0  0  0  0  0  0  0  0
   -3.5517   -1.4712    0.0000 C   0  0  0  0  0  0  0  0  0  0  0  0
   -2.7184   -2.7184    0.0000 C   0  0  0  0  0  0  0  0  0  0  0  0
   -1.4712   -3.5517    0.0000 C   0  0  0  0  0  0  0  0  0  0  0  0
   -2.0452   -4.9376    0.0000 O   0  0  0  0  0  0  0  0  0  0  0  0
   -3.5324   -5.1333    0.0000 C   0  0  0  0  0  0  0  0  0  0  0  0
   -4.4455   -3.9433    0.0000 O   0  0  0  0  0  0  0  0  0  0  0  0
   -4.1064   -6.5192    0.0000 C   0  0  0  0  0  0  0  0  0  0  0  0
   -5.5936   -6.7150    0.0000 C   0  0  0  0  0  0  0  0  0  0  0  0
   -6.1676   -8.1008    0.0000 C   0  0  0  0  0  0  0  0  0  0  0  0
   -5.2544   -9.2908    0.0000 O   0  0  0  0  0  0  0  0  0  0  0  0
   -7.6548   -8.2966    0.0000 O   0  0  0  0  0  0  0  0  0  0  0  0
   -0.0000   -3.8444    0.0000 C   0  0  0  0  0  0  0  0  0  0  0  0
   -0.0000   -5.3444    0.0000 C   0  0  0  0  0  0  0  0  0  0  0  0
    1.4712   -3.5517    0.0000 C   0  0  0  0  0  0  0  0  0  0  0  0
    2.7184   -2.7184    0.0000 C   0  0  0  0  0  0  0  0  0  0  0  0
    3.7790   -3.7790    0.0000 C   0  0  0  0  0  0  0  0  0  0  0  0
    3.3908   -5.2279    0.0000 C   0  0  0  0  0  0  0  0  0  0  0  0
    4.4515   -6.2886    0.0000 O   0  0  0  0  0  0  0  0  0  0  0  0
    7.5134   -1.7061    0.0000 O   0  0  0  0  0  0  0  0  0  0  0  0
    8.7034   -0.7929    0.0000 C   0  0  0  0  0  0  0  0  0  0  0  0
   10.0893   -1.3670    0.0000 C   0  0  0  0  0  0  0  0  0  0  0  0
   12.2735    1.9465    0.0000 C   0  0  0  0  0  0  0  0  0  0  0  0
   13.6593    1.3725    0.0000 C   0  0  0  0  0  0  0  0  0  0  0  0
   13.9840    2.8369    0.0000 C   0  0  0  0  0  0  0  0  0  0  0  0
   15.1579    1.3070    0.0000 O   0  0  0  0  0  0  0  0  0  0  0  0
  1  2  1  0
  2  3  1  0
  3  4  1  0
  4  5  2  0
  4  6  1  0
  7  6  1  1
  7  8  1  0
  8  9  1  6
  8 10  1  0
 10 11  1  0
 11 12  1  1
 13 12  1  6
 13 14  1  0
 14 15  1  1
 15 16  1  0
 15 17  1  0
 14 18  1  0
 18 19  1  6
 19 20  1  0
 20 21  2  0
 20 22  1  0
 22 23  1  0
 23 24  1  0
 24 25  2  0
 24 26  1  0
 18 27  1  0
 27 28  1  1
 29 28  1  1
 29 30  1  0
 30 31  1  6
 31 32  1  0
 30 33  1  0
 33 34  1  1
 33 35  1  0
 35 36  1  0
 36 37  2  0
 36 38  1  0
 38 39  1  0
 39 40  1  1
 39 41  1  0
 41 42  1  0
 42 43  2  0
 43 44  1  0
 44 45  2  0
 45 46  1  0
 46 47  1  1
 47 48  1  0
 48 49  2  0
 48 50  1  0
 50 51  1  0
 51 52  1  0
 52 53  2  0
 52 54  1  0
 46 55  1  0
 55 56  1  1
 55 57  1  0
 57 58  1  0
 58 59  1  1
 59 60  1  0
 60 61  2  0
 27 62  1  0
 62 63  1  0
 63 64  1  1
 11 65  1  0
 65 66  1  0
 66 67  1  6
 66 68  1  0
 66  7  1  0
 63 13  1  0
 58 29  1  0
M  END
>  <ChEMBL_IDs>  (41) 
CHEMBL3244606

>  <target_organism>  (41) 
None

>  <target_molecule_pref_name>  (41) 
None

>  <# Known Targets>  (41) 
1.0

>  <Known Targets>  (41) 
CHEMBL612545

>  <smiles>  (41) 
CCCC(=O)O[C@H]1[C@H](C)O[C@@H](O[C@H]2[C@H](N(C)C)[C@@H](OC(=O)CCC(=O)O)[C@H](O[C@@H]3[C@@H](OC)[C@H](O)CC(=O)O[C@H](C)C/C=C/C=C/[C@H](OC(=O)CCC(=O)O)[C@H](C)C[C@@H]3CC=O)O[C@@H]2C)C[C@@]1(C)O

$$$$

     RDKit          2D

 60 62  0  0  0  0  0  0  0  0999 V2000
   16.4157   -9.6117    0.0000 C   0  0  0  0  0  0  0  0  0  0  0  0
   15.0299   -9.0377    0.0000 C   0  0  0  0  0  0  0  0  0  0  0  0
   13.8398   -9.9509    0.0000 C   0  0  0  0  0  0  0  0  0  0  0  0
   12.4540   -9.3768    0.0000 C   0  0  0  0  0  0  0  0  0  0  0  0
   12.2582   -7.8897    0.0000 O   0  0  0  0  0  0  0  0  0  0  0  0
   11.2640  -10.2900    0.0000 O   0  0  0  0  0  0  0  0  0  0  0  0
    9.8782   -9.7159    0.0000 C   0  0  0  0  0  0  0  0  0  0  0  0
    9.6824   -8.2288    0.0000 C   0  0  0  0  0  0  0  0  0  0  0  0
   10.8724   -7.3156    0.0000 C   0  0  0  0  0  0  0  0  0  0  0  0
    8.2966   -7.6548    0.0000 O   0  0  0  0  0  0  0  0  0  0  0  0
    7.1065   -8.5679    0.0000 C   0  0  0  0  0  0  0  0  0  0  0  0
    5.7207   -7.9939    0.0000 O   0  0  0  0  0  0  0  0  0  0  0  0
    5.5249   -6.5067    0.0000 C   0  0  0  0  0  0  0  0  0  0  0  0
    4.1391   -5.9327    0.0000 C   0  0  0  0  0  0  0  0  0  0  0  0
    2.9491   -6.8458    0.0000 C   0  0  0  0  0  0  0  0  0  0  0  0
    3.9433   -4.4455    0.0000 O   0  0  0  0  0  0  0  0  0  0  0  0
    5.1333   -3.5324    0.0000 C   0  0  0  0  0  0  0  0  0  0  0  0
    4.9376   -2.0452    0.0000 O   0  0  0  0  0  0  0  0  0  0  0  0
    3.5517   -1.4712    0.0000 C   0  0  0  0  0  0  0  0  0  0  0  0
    3.8444    0.0000    0.0000 C   0  0  0  0  0  0  0  0  0  0  0  0
    5.3444    0.0000    0.0000 O   0  0  0  0  0  0  0  0  0  0  0  0
    6.0944   -1.2990    0.0000 C   0  0  0  0  0  0  0  0  0  0  0  0
    3.5517    1.4712    0.0000 C   0  0  0  0  0  0  0  0  0  0  0  0
    4.9376    2.0452    0.0000 O   0  0  0  0  0  0  0  0  0  0  0  0
    5.1333    3.5324    0.0000 C   0  0  0  0  0  0  0  0  0  0  0  0
    6.5192    4.1064    0.0000 C   0  0  0  0  0  0  0  0  0  0  0  0
    3.9433    4.4455    0.0000 O   0  0  0  0  0  0  0  0  0  0  0  0
    2.7184    2.7184    0.0000 C   0  0  0  0  0  0  0  0  0  0  0  0
    1.4712    3.5517    0.0000 C   0  0  0  0  0  0  0  0  0  0  0  0
    2.0452    4.9376    0.0000 O   0  0  0  0  0  0  0  0  0  0  0  0
    0.0000    3.8444    0.0000 O   0  0  0  0  0  0  0  0  0  0  0  0
   -1.4712    3.5517    0.0000 C   0  0  0  0  0  0  0  0  0  0  0  0
   -2.0452    4.9376    0.0000 C   0  0  0  0  0  0  0  0  0  0  0  0
   -2.7184    2.7184    0.0000 C   0  0  0  0  0  0  0  0  0  0  0  0
   -3.5517    1.4712    0.0000 C   0  0  0  0  0  0  0  0  0  0  0  0
   -3.8444    0.0000    0.0000 C   0  0  0  0  0  0  0  0  0  0  0  0
   -3.5517   -1.4712    0.0000 C   0  0  0  0  0  0  0  0  0  0  0  0
   -2.7184   -2.7184    0.0000 C   0  0  0  0  0  0  0  0  0  0  0  0
   -1.4712   -3.5517    0.0000 C   0  0  0  0  0  0  0  0  0  0  0  0
   -2.0452   -4.9376    0.0000 O   0  0  0  0  0  0  0  0  0  0  0  0
   -3.5324   -5.1333    0.0000 C   0  0  0  0  0  0  0  0  0  0  0  0
   -4.1064   -6.5192    0.0000 C   0  0  0  0  0  0  0  0  0  0  0  0
   -4.4455   -3.9433    0.0000 O   0  0  0  0  0  0  0  0  0  0  0  0
   -0.0000   -3.8444    0.0000 C   0  0  0  0  0  0  0  0  0  0  0  0
   -0.0000   -5.3444    0.0000 C   0  0  0  0  0  0  0  0  0  0  0  0
    1.4712   -3.5517    0.0000 C   0  0  0  0  0  0  0  0  0  0  0  0
    2.7184   -2.7184    0.0000 C   0  0  0  0  0  0  0  0  0  0  0  0
    3.7790   -3.7790    0.0000 C   0  0  0  0  0  0  0  0  0  0  0  0
    3.3908   -5.2279    0.0000 C   0  0  0  0  0  0  0  0  0  0  0  0
    4.1633   -6.5137    0.0000 O   0  0  0  0  0  0  0  0  0  0  0  0
    6.5192   -4.1064    0.0000 C   0  0  0  0  0  0  0  0  0  0  0  0
    7.7092   -3.1933    0.0000 O   0  0  0  0  0  0  0  0  0  0  0  0
    6.7150   -5.5936    0.0000 C   0  0  0  0  0  0  0  0  0  0  0  0
    8.1008   -6.1676    0.0000 N   0  0  0  0  0  0  0  0  0  0  0  0
    9.2908   -5.2544    0.0000 C   0  0  0  0  0  0  0  0  0  0  0  0
    8.6506   -7.5632    0.0000 C   0  0  0  0  0  0  0  0  0  0  0  0
    7.3023  -10.0551    0.0000 C   0  0  0  0  0  0  0  0  0  0  0  0
    8.6881  -10.6291    0.0000 C   0  0  0  0  0  0  0  0  0  0  0  0
    7.8822  -11.8942    0.0000 C   0  0  0  0  0  0  0  0  0  0  0  0
    9.7941  -11.6425    0.0000 O   0  0  0  0  0  0  0  0  0  0  0  0
  1  2  1  0
  2  3  1  0
  3  4  1  0
  4  5  2  0
  4  6  1  0
  7  6  1  6
  7  8  1  0
  8  9  1  1
  8 10  1  0
 10 11  1  0
 11 12  1  6
 13 12  1  6
 13 14  1  0
 14 15  1  1
 14 16  1  0
 16 17  1  0
 17 18  1  1
 19 18  1  1
 19 20  1  0
 20 21  1  6
 21 22  1  0
 20 23  1  0
 23 24  1  1
 24 25  1  0
 25 26  1  0
 25 27  2  0
 23 28  1  0
 28 29  1  0
 29 30  2  0
 29 31  1  0
 31 32  1  0
 32 33  1  1
 32 34  1  0
 34 35  1  0
 35 36  2  0
 36 37  1  0
 37 38  2  0
 38 39  1  0
 39 40  1  1
 40 41  1  0
 41 42  1  0
 41 43  2  0
 39 44  1  0
 44 45  1  1
 44 46  1  0
 46 47  1  0
 47 48  1  1
 48 49  1  0
 49 50  2  0
 17 51  1  0
 51 52  1  6
 51 53  1  0
 53 54  1  1
 54 55  1  0
 54 56  1  0
 11 57  1  0
 57 58  1  0
 58 59  1  1
 58 60  1  0
 58  7  1  0
 53 13  1  0
 47 19  1  0
M  END
>  <ChEMBL_IDs>  (42) 
CHEMBL3251873

>  <target_organism>  (42) 
Homo sapiens

>  <target_molecule_pref_name>  (42) 
None

>  <# Known Targets>  (42) 
1.0

>  <Known Targets>  (42) 
CHEMBL612545

>  <smiles>  (42) 
CCCC(=O)O[C@H]1[C@H](C)O[C@@H](O[C@@H]2[C@@H](C)O[C@@H](O[C@@H]3[C@@H](OC)[C@H](OC(C)=O)CC(=O)O[C@H](C)C/C=C/C=C/[C@H](OC(C)=O)[C@H](C)C[C@@H]3CC=O)[C@H](O)[C@H]2N(C)C)C[C@@]1(C)O

$$$$

     RDKit          2D

 59 61  0  0  0  0  0  0  0  0999 V2000
   11.8573    3.8971    0.0000 C   0  0  0  0  0  0  0  0  0  0  0  0
   10.3573    3.8971    0.0000 C   0  0  0  0  0  0  0  0  0  0  0  0
    9.6073    2.5981    0.0000 N   0  0  0  0  0  0  0  0  0  0  0  0
    8.1073    2.5981    0.0000 C   0  0  0  0  0  0  0  0  0  0  0  0
    7.3573    3.8971    0.0000 O   0  0  0  0  0  0  0  0  0  0  0  0
    7.3573    1.2990    0.0000 N   0  0  0  0  0  0  0  0  0  0  0  0
    5.8573    1.2990    0.0000 C   0  0  0  0  0  0  0  0  0  0  0  0
    5.1073    0.0000    0.0000 C   0  0  0  0  0  0  0  0  0  0  0  0
    3.6073    0.0000    0.0000 N   0  0  0  0  0  0  0  0  0  0  0  0
    3.2954    1.4672    0.0000 C   0  0  0  0  0  0  0  0  0  0  0  0
    2.4138    2.6807    0.0000 C   0  0  0  0  0  0  0  0  0  0  0  0
    3.4175    3.7955    0.0000 C   0  0  0  0  0  0  0  0  0  0  0  0
    1.1147    3.4307    0.0000 C   0  0  0  0  0  0  0  0  0  0  0  0
   -0.3771    3.5875    0.0000 C   0  0  0  0  0  0  0  0  0  0  0  0
   -1.3412    4.7366    0.0000 C   0  0  0  0  0  0  0  0  0  0  0  0
    0.3271    4.9120    0.0000 O   0  0  0  0  0  0  0  0  0  0  0  0
   -1.8037    3.1240    0.0000 C   0  0  0  0  0  0  0  0  0  0  0  0
   -2.5537    4.4231    0.0000 O   0  0  0  0  0  0  0  0  0  0  0  0
   -1.8037    5.7221    0.0000 C   0  0  0  0  0  0  0  0  0  0  0  0
   -0.3037    5.7221    0.0000 O   0  0  0  0  0  0  0  0  0  0  0  0
    0.4463    7.0211    0.0000 C   0  0  0  0  0  0  0  0  0  0  0  0
    1.9463    7.0211    0.0000 C   0  0  0  0  0  0  0  0  0  0  0  0
   -0.3037    8.3202    0.0000 C   0  0  0  0  0  0  0  0  0  0  0  0
   -1.8037    8.3202    0.0000 C   0  0  0  0  0  0  0  0  0  0  0  0
   -2.5537    9.6192    0.0000 N   0  0  0  0  0  0  0  0  0  0  0  0
   -1.8037   10.9182    0.0000 C   0  0  0  0  0  0  0  0  0  0  0  0
   -4.0537    9.6192    0.0000 C   0  0  0  0  0  0  0  0  0  0  0  0
   -2.5537    7.0211    0.0000 C   0  0  0  0  0  0  0  0  0  0  0  0
   -4.0537    7.0211    0.0000 O   0  0  0  0  0  0  0  0  0  0  0  0
   -2.9184    2.1203    0.0000 C   0  0  0  0  0  0  0  0  0  0  0  0
   -4.1319    3.0020    0.0000 C   0  0  0  0  0  0  0  0  0  0  0  0
   -3.5285    0.7500    0.0000 C   0  0  0  0  0  0  0  0  0  0  0  0
   -4.9957    1.0619    0.0000 O   0  0  0  0  0  0  0  0  0  0  0  0
   -5.9994   -0.0528    0.0000 C   0  0  0  0  0  0  0  0  0  0  0  0
   -7.4666    0.2590    0.0000 C   0  0  0  0  0  0  0  0  0  0  0  0
   -8.4703   -0.8557    0.0000 C   0  0  0  0  0  0  0  0  0  0  0  0
   -9.7947   -1.5599    0.0000 C   0  0  0  0  0  0  0  0  0  0  0  0
   -9.3938    0.3263    0.0000 O   0  0  0  0  0  0  0  0  0  0  0  0
  -10.8792    0.1176    0.0000 C   0  0  0  0  0  0  0  0  0  0  0  0
   -8.0068   -2.2823    0.0000 C   0  0  0  0  0  0  0  0  0  0  0  0
   -9.0105   -3.3970    0.0000 O   0  0  0  0  0  0  0  0  0  0  0  0
   -6.5396   -2.5942    0.0000 C   0  0  0  0  0  0  0  0  0  0  0  0
   -6.0760   -4.0207    0.0000 C   0  0  0  0  0  0  0  0  0  0  0  0
   -5.5359   -1.4794    0.0000 O   0  0  0  0  0  0  0  0  0  0  0  0
   -3.5285   -0.7500    0.0000 C   0  0  0  0  0  0  0  0  0  0  0  0
   -4.7418   -1.3419    0.0000 C   0  0  0  0  0  0  0  0  0  0  0  0
   -2.9184   -2.1203    0.0000 C   0  0  0  0  0  0  0  0  0  0  0  0
   -4.1319   -3.0020    0.0000 O   0  0  0  0  0  0  0  0  0  0  0  0
   -1.8037   -3.1240    0.0000 O   0  0  0  0  0  0  0  0  0  0  0  0
   -0.3771   -3.5875    0.0000 C   0  0  0  0  0  0  0  0  0  0  0  0
   -0.5339   -5.0793    0.0000 C   0  0  0  0  0  0  0  0  0  0  0  0
   -1.9042   -5.6894    0.0000 C   0  0  0  0  0  0  0  0  0  0  0  0
    1.1147   -3.4307    0.0000 C   0  0  0  0  0  0  0  0  0  0  0  0
    2.2967   -4.3542    0.0000 C   0  0  0  0  0  0  0  0  0  0  0  0
    0.7013   -4.8726    0.0000 O   0  0  0  0  0  0  0  0  0  0  0  0
    2.4138   -2.6807    0.0000 C   0  0  0  0  0  0  0  0  0  0  0  0
    3.4175   -3.7955    0.0000 O   0  0  0  0  0  0  0  0  0  0  0  0
    3.2954   -1.4672    0.0000 C   0  0  0  0  0  0  0  0  0  0  0  0
    4.6658   -2.0773    0.0000 C   0  0  0  0  0  0  0  0  0  0  0  0
  1  2  1  0
  2  3  1  0
  3  4  1  0
  4  5  2  0
  4  6  1  0
  6  7  1  0
  7  8  1  0
  8  9  1  0
  9 10  1  0
 10 11  1  0
 11 12  1  1
 11 13  1  0
 13 14  1  0
 14 15  1  1
 14 16  1  0
 14 17  1  0
 17 18  1  1
 19 18  1  1
 19 20  1  0
 20 21  1  0
 21 22  1  1
 21 23  1  0
 23 24  1  0
 24 25  1  1
 25 26  1  0
 25 27  1  0
 24 28  1  0
 28 29  1  6
 17 30  1  0
 30 31  1  6
 30 32  1  0
 32 33  1  1
 34 33  1  6
 34 35  1  0
 35 36  1  0
 36 37  1  1
 36 38  1  0
 38 39  1  0
 36 40  1  0
 40 41  1  6
 40 42  1  0
 42 43  1  1
 42 44  1  0
 32 45  1  0
 45 46  1  6
 45 47  1  0
 47 48  2  0
 47 49  1  0
 49 50  1  0
 50 51  1  1
 51 52  1  0
 50 53  1  0
 53 54  1  1
 53 55  1  0
 53 56  1  0
 56 57  1  1
 56 58  1  0
 58 59  1  6
 58  9  1  0
 28 19  1  0
 44 34  1  0
M  END
>  <ChEMBL_IDs>  (43) 
CHEMBL1774624

>  <target_organism>  (43) 
Homo sapiens,None,Escherichia coli K-12

>  <target_molecule_pref_name>  (43) 
None

>  <# Known Targets>  (43) 
1.0

>  <Known Targets>  (43) 
CHEMBL364

>  <smiles>  (43) 
CCNC(=O)NCCN1C[C@H](C)C[C@@](C)(O)[C@H](O[C@@H]2O[C@H](C)C[C@H](N(C)C)[C@H]2O)[C@@H](C)[C@H](O[C@H]2C[C@@](C)(OC)[C@@H](O)[C@H](C)O2)[C@@H](C)C(=O)O[C@H](CC)[C@@](C)(O)[C@H](O)[C@H]1C

$$$$

     RDKit          2D

 59 61  0  0  0  0  0  0  0  0999 V2000
    5.6205   -1.2990    0.0000 C   0  0  0  0  0  0  0  0  0  0  0  0
    4.8705    0.0000    0.0000 C   0  0  0  0  0  0  0  0  0  0  0  0
    3.3705    0.0000    0.0000 C   0  0  0  0  0  0  0  0  0  0  0  0
    3.0367   -1.4624    0.0000 O   0  0  0  0  0  0  0  0  0  0  0  0
    2.1015   -2.6351    0.0000 C   0  0  0  0  0  0  0  0  0  0  0  0
    3.0367   -3.8079    0.0000 O   0  0  0  0  0  0  0  0  0  0  0  0
    0.7500   -3.2860    0.0000 C   0  0  0  0  0  0  0  0  0  0  0  0
    1.3600   -4.4903    0.0000 C   0  0  0  0  0  0  0  0  0  0  0  0
   -0.7500   -3.2860    0.0000 C   0  0  0  0  0  0  0  0  0  0  0  0
   -1.0838   -4.7484    0.0000 O   0  0  0  0  0  0  0  0  0  0  0  0
    0.0158   -5.7686    0.0000 C   0  0  0  0  0  0  0  0  0  0  0  0
   -0.3180   -7.2310    0.0000 C   0  0  0  0  0  0  0  0  0  0  0  0
    0.7816   -8.2513    0.0000 C   0  0  0  0  0  0  0  0  0  0  0  0
    1.4659   -9.5861    0.0000 C   0  0  0  0  0  0  0  0  0  0  0  0
   -0.4141   -9.1570    0.0000 O   0  0  0  0  0  0  0  0  0  0  0  0
   -0.2276  -10.6453    0.0000 C   0  0  0  0  0  0  0  0  0  0  0  0
    2.2150   -7.8091    0.0000 C   0  0  0  0  0  0  0  0  0  0  0  0
    3.3145   -8.8294    0.0000 O   0  0  0  0  0  0  0  0  0  0  0  0
    2.5487   -6.3467    0.0000 C   0  0  0  0  0  0  0  0  0  0  0  0
    3.9821   -5.9046    0.0000 C   0  0  0  0  0  0  0  0  0  0  0  0
    1.4492   -5.3265    0.0000 O   0  0  0  0  0  0  0  0  0  0  0  0
   -2.1015   -2.6351    0.0000 C   0  0  0  0  0  0  0  0  0  0  0  0
   -3.0367   -3.8079    0.0000 C   0  0  0  0  0  0  0  0  0  0  0  0
   -3.0367   -1.4624    0.0000 C   0  0  0  0  0  0  0  0  0  0  0  0
   -4.3881   -2.1132    0.0000 O   0  0  0  0  0  0  0  0  0  0  0  0
   -5.6275   -1.2682    0.0000 C   0  0  0  0  0  0  0  0  0  0  0  0
   -5.5154    0.2276    0.0000 O   0  0  0  0  0  0  0  0  0  0  0  0
   -6.7548    1.0725    0.0000 C   0  0  0  0  0  0  0  0  0  0  0  0
   -6.6427    2.5684    0.0000 C   0  0  0  0  0  0  0  0  0  0  0  0
   -8.1062    0.4217    0.0000 C   0  0  0  0  0  0  0  0  0  0  0  0
   -8.2183   -1.0741    0.0000 C   0  0  0  0  0  0  0  0  0  0  0  0
   -9.5698   -1.7249    0.0000 N   0  0  0  0  0  0  0  0  0  0  0  0
  -10.8091   -0.8799    0.0000 C   0  0  0  0  0  0  0  0  0  0  0  0
   -9.6819   -3.2207    0.0000 C   0  0  0  0  0  0  0  0  0  0  0  0
  -11.0333   -3.8715    0.0000 C   0  0  0  0  0  0  0  0  0  0  0  0
   -8.4425   -4.0657    0.0000 C   0  0  0  0  0  0  0  0  0  0  0  0
   -6.9790   -1.9191    0.0000 C   0  0  0  0  0  0  0  0  0  0  0  0
   -7.0910   -3.4149    0.0000 O   0  0  0  0  0  0  0  0  0  0  0  0
   -3.3705    0.0000    0.0000 C   0  0  0  0  0  0  0  0  0  0  0  0
   -4.6098   -0.8450    0.0000 C   0  0  0  0  0  0  0  0  0  0  0  0
   -4.6098    0.8450    0.0000 O   0  0  0  0  0  0  0  0  0  0  0  0
   -3.0367    1.4624    0.0000 C   0  0  0  0  0  0  0  0  0  0  0  0
   -2.1015    2.6351    0.0000 C   0  0  0  0  0  0  0  0  0  0  0  0
   -3.0367    3.8079    0.0000 C   0  0  0  0  0  0  0  0  0  0  0  0
   -0.7500    3.2860    0.0000 C   0  0  0  0  0  0  0  0  0  0  0  0
   -1.0838    4.7484    0.0000 O   0  0  0  0  0  0  0  0  0  0  0  0
    0.0158    5.7686    0.0000 C   0  0  0  0  0  0  0  0  0  0  0  0
   -0.3180    7.2310    0.0000 C   0  0  0  0  0  0  0  0  0  0  0  0
    0.7816    8.2513    0.0000 N   0  0  0  0  0  0  0  0  0  0  0  0
    0.4478    9.7137    0.0000 C   0  0  0  0  0  0  0  0  0  0  0  0
   -0.9855   10.1558    0.0000 N   0  0  0  0  0  0  0  0  0  0  0  0
    1.5474   10.7339    0.0000 N   0  0  0  0  0  0  0  0  0  0  0  0
    0.7500    3.2860    0.0000 C   0  0  0  0  0  0  0  0  0  0  0  0
    1.0838    4.7484    0.0000 C   0  0  0  0  0  0  0  0  0  0  0  0
    2.1015    2.6351    0.0000 C   0  0  0  0  0  0  0  0  0  0  0  0
    3.0367    3.8079    0.0000 O   0  0  0  0  0  0  0  0  0  0  0  0
    3.0367    1.4624    0.0000 C   0  0  0  0  0  0  0  0  0  0  0  0
    3.7867    2.7614    0.0000 C   0  0  0  0  0  0  0  0  0  0  0  0
    4.5199    1.2388    0.0000 O   0  0  0  0  0  0  0  0  0  0  0  0
  1  2  1  0
  3  2  1  1
  3  4  1  0
  4  5  1  0
  5  6  2  0
  5  7  1  0
  7  8  1  6
  7  9  1  0
  9 10  1  1
 11 10  1  6
 11 12  1  0
 12 13  1  0
 13 14  1  1
 13 15  1  0
 15 16  1  0
 13 17  1  0
 17 18  1  6
 17 19  1  0
 19 20  1  1
 19 21  1  0
  9 22  1  0
 22 23  1  6
 22 24  1  0
 24 25  1  1
 26 25  1  1
 26 27  1  0
 27 28  1  0
 28 29  1  1
 28 30  1  0
 30 31  1  0
 31 32  1  1
 32 33  1  0
 32 34  1  0
 34 35  1  0
 34 36  1  0
 31 37  1  0
 37 38  1  6
 24 39  1  0
 39 40  1  1
 39 41  1  0
 39 42  1  0
 42 43  1  0
 43 44  1  1
 43 45  1  0
 45 46  1  6
 46 47  1  0
 47 48  1  0
 48 49  1  0
 49 50  1  0
 50 51  2  0
 50 52  1  0
 45 53  1  0
 53 54  1  6
 53 55  1  0
 55 56  1  1
 55 57  1  0
 57 58  1  1
 57 59  1  0
 57  3  1  0
 21 11  1  0
 37 26  1  0
M  END
>  <ChEMBL_IDs>  (44) 
CHEMBL1269446

>  <target_organism>  (44) 
nan

>  <target_molecule_pref_name>  (44) 
None

>  <# Known Targets>  (44) 
1.0

>  <Known Targets>  (44) 
CHEMBL3879801

>  <smiles>  (44) 
CC[C@H]1OC(=O)[C@H](C)[C@@H](O[C@H]2C[C@@](C)(OC)[C@@H](O)[C@H](C)O2)[C@H](C)[C@@H](O[C@@H]2O[C@H](C)C[C@H](N(C)C(C)C)[C@H]2O)[C@](C)(O)C[C@@H](C)[C@H](OCCNC(=N)N)[C@H](C)[C@@H](O)[C@]1(C)O

$$$$

     RDKit          2D

 60 62  0  0  0  0  0  0  0  0999 V2000
    5.6205   -1.2990    0.0000 C   0  0  0  0  0  0  0  0  0  0  0  0
    4.8705    0.0000    0.0000 C   0  0  0  0  0  0  0  0  0  0  0  0
    3.3705    0.0000    0.0000 C   0  0  0  0  0  0  0  0  0  0  0  0
    3.0367   -1.4624    0.0000 O   0  0  0  0  0  0  0  0  0  0  0  0
    2.1015   -2.6351    0.0000 C   0  0  0  0  0  0  0  0  0  0  0  0
    3.0367   -3.8079    0.0000 O   0  0  0  0  0  0  0  0  0  0  0  0
    0.7500   -3.2860    0.0000 C   0  0  0  0  0  0  0  0  0  0  0  0
    1.3600   -4.4903    0.0000 C   0  0  0  0  0  0  0  0  0  0  0  0
   -0.7500   -3.2860    0.0000 C   0  0  0  0  0  0  0  0  0  0  0  0
   -1.0838   -4.7484    0.0000 O   0  0  0  0  0  0  0  0  0  0  0  0
    0.0158   -5.7686    0.0000 C   0  0  0  0  0  0  0  0  0  0  0  0
   -0.3180   -7.2310    0.0000 C   0  0  0  0  0  0  0  0  0  0  0  0
    0.7816   -8.2513    0.0000 C   0  0  0  0  0  0  0  0  0  0  0  0
    1.4659   -9.5861    0.0000 C   0  0  0  0  0  0  0  0  0  0  0  0
   -0.4141   -9.1570    0.0000 O   0  0  0  0  0  0  0  0  0  0  0  0
   -0.2276  -10.6453    0.0000 C   0  0  0  0  0  0  0  0  0  0  0  0
    2.2150   -7.8091    0.0000 C   0  0  0  0  0  0  0  0  0  0  0  0
    3.3145   -8.8294    0.0000 O   0  0  0  0  0  0  0  0  0  0  0  0
    2.5487   -6.3467    0.0000 C   0  0  0  0  0  0  0  0  0  0  0  0
    3.9821   -5.9046    0.0000 C   0  0  0  0  0  0  0  0  0  0  0  0
    1.4492   -5.3265    0.0000 O   0  0  0  0  0  0  0  0  0  0  0  0
   -2.1015   -2.6351    0.0000 C   0  0  0  0  0  0  0  0  0  0  0  0
   -3.0367   -3.8079    0.0000 C   0  0  0  0  0  0  0  0  0  0  0  0
   -3.0367   -1.4624    0.0000 C   0  0  0  0  0  0  0  0  0  0  0  0
   -4.3881   -2.1132    0.0000 O   0  0  0  0  0  0  0  0  0  0  0  0
   -5.6275   -1.2682    0.0000 C   0  0  0  0  0  0  0  0  0  0  0  0
   -5.5154    0.2276    0.0000 O   0  0  0  0  0  0  0  0  0  0  0  0
   -6.7548    1.0725    0.0000 C   0  0  0  0  0  0  0  0  0  0  0  0
   -6.6427    2.5684    0.0000 C   0  0  0  0  0  0  0  0  0  0  0  0
   -8.1062    0.4217    0.0000 C   0  0  0  0  0  0  0  0  0  0  0  0
   -8.2183   -1.0741    0.0000 C   0  0  0  0  0  0  0  0  0  0  0  0
   -9.5698   -1.7249    0.0000 N   0  0  0  0  0  0  0  0  0  0  0  0
  -10.8091   -0.8799    0.0000 C   0  0  0  0  0  0  0  0  0  0  0  0
   -9.6819   -3.2207    0.0000 C   0  0  0  0  0  0  0  0  0  0  0  0
  -11.0333   -3.8715    0.0000 C   0  0  0  0  0  0  0  0  0  0  0  0
   -8.4425   -4.0657    0.0000 C   0  0  0  0  0  0  0  0  0  0  0  0
   -6.9790   -1.9191    0.0000 C   0  0  0  0  0  0  0  0  0  0  0  0
   -7.0910   -3.4149    0.0000 O   0  0  0  0  0  0  0  0  0  0  0  0
   -3.3705    0.0000    0.0000 C   0  0  0  0  0  0  0  0  0  0  0  0
   -4.6098   -0.8450    0.0000 C   0  0  0  0  0  0  0  0  0  0  0  0
   -4.6098    0.8450    0.0000 O   0  0  0  0  0  0  0  0  0  0  0  0
   -3.0367    1.4624    0.0000 C   0  0  0  0  0  0  0  0  0  0  0  0
   -2.1015    2.6351    0.0000 C   0  0  0  0  0  0  0  0  0  0  0  0
   -3.0367    3.8079    0.0000 C   0  0  0  0  0  0  0  0  0  0  0  0
   -0.7500    3.2860    0.0000 C   0  0  0  0  0  0  0  0  0  0  0  0
   -1.0838    4.7484    0.0000 O   0  0  0  0  0  0  0  0  0  0  0  0
    0.0158    5.7686    0.0000 C   0  0  0  0  0  0  0  0  0  0  0  0
   -0.3180    7.2310    0.0000 C   0  0  0  0  0  0  0  0  0  0  0  0
    0.7816    8.2513    0.0000 N   0  0  0  0  0  0  0  0  0  0  0  0
    0.4478    9.7137    0.0000 S   0  0  0  0  0  0  0  0  0  0  0  0
    0.1140   11.1761    0.0000 C   0  0  0  0  0  0  0  0  0  0  0  0
   -1.0146    9.3799    0.0000 O   0  0  0  0  0  0  0  0  0  0  0  0
    1.9102   10.0474    0.0000 O   0  0  0  0  0  0  0  0  0  0  0  0
    0.7500    3.2860    0.0000 C   0  0  0  0  0  0  0  0  0  0  0  0
    1.0838    4.7484    0.0000 C   0  0  0  0  0  0  0  0  0  0  0  0
    2.1015    2.6351    0.0000 C   0  0  0  0  0  0  0  0  0  0  0  0
    3.0367    3.8079    0.0000 O   0  0  0  0  0  0  0  0  0  0  0  0
    3.0367    1.4624    0.0000 C   0  0  0  0  0  0  0  0  0  0  0  0
    3.7867    2.7614    0.0000 C   0  0  0  0  0  0  0  0  0  0  0  0
    4.5199    1.2388    0.0000 O   0  0  0  0  0  0  0  0  0  0  0  0
  1  2  1  0
  3  2  1  1
  3  4  1  0
  4  5  1  0
  5  6  2  0
  5  7  1  0
  7  8  1  6
  7  9  1  0
  9 10  1  1
 11 10  1  6
 11 12  1  0
 12 13  1  0
 13 14  1  1
 13 15  1  0
 15 16  1  0
 13 17  1  0
 17 18  1  6
 17 19  1  0
 19 20  1  1
 19 21  1  0
  9 22  1  0
 22 23  1  6
 22 24  1  0
 24 25  1  1
 26 25  1  1
 26 27  1  0
 27 28  1  0
 28 29  1  1
 28 30  1  0
 30 31  1  0
 31 32  1  1
 32 33  1  0
 32 34  1  0
 34 35  1  0
 34 36  1  0
 31 37  1  0
 37 38  1  6
 24 39  1  0
 39 40  1  1
 39 41  1  0
 39 42  1  0
 42 43  1  0
 43 44  1  1
 43 45  1  0
 45 46  1  6
 46 47  1  0
 47 48  1  0
 48 49  1  0
 49 50  1  0
 50 51  1  0
 50 52  2  0
 50 53  2  0
 45 54  1  0
 54 55  1  6
 54 56  1  0
 56 57  1  1
 56 58  1  0
 58 59  1  1
 58 60  1  0
 58  3  1  0
 21 11  1  0
 37 26  1  0
M  END
>  <ChEMBL_IDs>  (45) 
CHEMBL1269444

>  <target_organism>  (45) 
nan

>  <target_molecule_pref_name>  (45) 
None

>  <# Known Targets>  (45) 
1.0

>  <Known Targets>  (45) 
CHEMBL3879801

>  <smiles>  (45) 
CC[C@H]1OC(=O)[C@H](C)[C@@H](O[C@H]2C[C@@](C)(OC)[C@@H](O)[C@H](C)O2)[C@H](C)[C@@H](O[C@@H]2O[C@H](C)C[C@H](N(C)C(C)C)[C@H]2O)[C@](C)(O)C[C@@H](C)[C@H](OCCNS(C)(=O)=O)[C@H](C)[C@@H](O)[C@]1(C)O

$$$$

     RDKit          2D

 59 61  0  0  0  0  0  0  0  0999 V2000
    5.6205   -1.2990    0.0000 C   0  0  0  0  0  0  0  0  0  0  0  0
    4.8705    0.0000    0.0000 C   0  0  0  0  0  0  0  0  0  0  0  0
    3.3705    0.0000    0.0000 C   0  0  0  0  0  0  0  0  0  0  0  0
    3.0367   -1.4624    0.0000 O   0  0  0  0  0  0  0  0  0  0  0  0
    2.1015   -2.6351    0.0000 C   0  0  0  0  0  0  0  0  0  0  0  0
    3.0367   -3.8079    0.0000 O   0  0  0  0  0  0  0  0  0  0  0  0
    0.7500   -3.2860    0.0000 C   0  0  0  0  0  0  0  0  0  0  0  0
    1.3600   -4.4903    0.0000 C   0  0  0  0  0  0  0  0  0  0  0  0
   -0.7500   -3.2860    0.0000 C   0  0  0  0  0  0  0  0  0  0  0  0
   -1.0838   -4.7484    0.0000 O   0  0  0  0  0  0  0  0  0  0  0  0
    0.0158   -5.7686    0.0000 C   0  0  0  0  0  0  0  0  0  0  0  0
   -0.3180   -7.2310    0.0000 C   0  0  0  0  0  0  0  0  0  0  0  0
    0.7816   -8.2513    0.0000 C   0  0  0  0  0  0  0  0  0  0  0  0
    1.4659   -9.5861    0.0000 C   0  0  0  0  0  0  0  0  0  0  0  0
   -0.4141   -9.1570    0.0000 O   0  0  0  0  0  0  0  0  0  0  0  0
   -0.2276  -10.6453    0.0000 C   0  0  0  0  0  0  0  0  0  0  0  0
    2.2150   -7.8091    0.0000 C   0  0  0  0  0  0  0  0  0  0  0  0
    3.3145   -8.8294    0.0000 O   0  0  0  0  0  0  0  0  0  0  0  0
    2.5487   -6.3467    0.0000 C   0  0  0  0  0  0  0  0  0  0  0  0
    3.9821   -5.9046    0.0000 C   0  0  0  0  0  0  0  0  0  0  0  0
    1.4492   -5.3265    0.0000 O   0  0  0  0  0  0  0  0  0  0  0  0
   -2.1015   -2.6351    0.0000 C   0  0  0  0  0  0  0  0  0  0  0  0
   -3.0367   -3.8079    0.0000 C   0  0  0  0  0  0  0  0  0  0  0  0
   -3.0367   -1.4624    0.0000 C   0  0  0  0  0  0  0  0  0  0  0  0
   -4.3881   -2.1132    0.0000 O   0  0  0  0  0  0  0  0  0  0  0  0
   -5.6275   -1.2682    0.0000 C   0  0  0  0  0  0  0  0  0  0  0  0
   -5.5154    0.2276    0.0000 O   0  0  0  0  0  0  0  0  0  0  0  0
   -6.7548    1.0725    0.0000 C   0  0  0  0  0  0  0  0  0  0  0  0
   -6.6427    2.5684    0.0000 C   0  0  0  0  0  0  0  0  0  0  0  0
   -8.1062    0.4217    0.0000 C   0  0  0  0  0  0  0  0  0  0  0  0
   -8.2183   -1.0741    0.0000 C   0  0  0  0  0  0  0  0  0  0  0  0
   -9.5698   -1.7249    0.0000 N   0  0  0  0  0  0  0  0  0  0  0  0
  -10.8091   -0.8799    0.0000 C   0  0  0  0  0  0  0  0  0  0  0  0
   -9.6819   -3.2207    0.0000 C   0  0  0  0  0  0  0  0  0  0  0  0
  -11.0333   -3.8715    0.0000 C   0  0  0  0  0  0  0  0  0  0  0  0
   -8.4425   -4.0657    0.0000 C   0  0  0  0  0  0  0  0  0  0  0  0
   -6.9790   -1.9191    0.0000 C   0  0  0  0  0  0  0  0  0  0  0  0
   -7.0910   -3.4149    0.0000 O   0  0  0  0  0  0  0  0  0  0  0  0
   -3.3705    0.0000    0.0000 C   0  0  0  0  0  0  0  0  0  0  0  0
   -4.6098   -0.8450    0.0000 C   0  0  0  0  0  0  0  0  0  0  0  0
   -4.6098    0.8450    0.0000 O   0  0  0  0  0  0  0  0  0  0  0  0
   -3.0367    1.4624    0.0000 C   0  0  0  0  0  0  0  0  0  0  0  0
   -2.1015    2.6351    0.0000 C   0  0  0  0  0  0  0  0  0  0  0  0
   -3.0367    3.8079    0.0000 C   0  0  0  0  0  0  0  0  0  0  0  0
   -0.7500    3.2860    0.0000 C   0  0  0  0  0  0  0  0  0  0  0  0
   -1.0838    4.7484    0.0000 O   0  0  0  0  0  0  0  0  0  0  0  0
    0.0158    5.7686    0.0000 C   0  0  0  0  0  0  0  0  0  0  0  0
   -0.3180    7.2310    0.0000 C   0  0  0  0  0  0  0  0  0  0  0  0
   -1.7513    7.6731    0.0000 O   0  0  0  0  0  0  0  0  0  0  0  0
    0.7816    8.2513    0.0000 N   0  0  0  0  0  0  0  0  0  0  0  0
    0.4478    9.7137    0.0000 O   0  0  0  0  0  0  0  0  0  0  0  0
    1.5474   10.7339    0.0000 C   0  0  0  0  0  0  0  0  0  0  0  0
    0.7500    3.2860    0.0000 C   0  0  0  0  0  0  0  0  0  0  0  0
    1.0838    4.7484    0.0000 C   0  0  0  0  0  0  0  0  0  0  0  0
    2.1015    2.6351    0.0000 C   0  0  0  0  0  0  0  0  0  0  0  0
    3.0367    3.8079    0.0000 O   0  0  0  0  0  0  0  0  0  0  0  0
    3.0367    1.4624    0.0000 C   0  0  0  0  0  0  0  0  0  0  0  0
    3.7867    2.7614    0.0000 C   0  0  0  0  0  0  0  0  0  0  0  0
    4.5199    1.2388    0.0000 O   0  0  0  0  0  0  0  0  0  0  0  0
  1  2  1  0
  3  2  1  1
  3  4  1  0
  4  5  1  0
  5  6  2  0
  5  7  1  0
  7  8  1  6
  7  9  1  0
  9 10  1  1
 11 10  1  6
 11 12  1  0
 12 13  1  0
 13 14  1  1
 13 15  1  0
 15 16  1  0
 13 17  1  0
 17 18  1  6
 17 19  1  0
 19 20  1  1
 19 21  1  0
  9 22  1  0
 22 23  1  6
 22 24  1  0
 24 25  1  1
 26 25  1  1
 26 27  1  0
 27 28  1  0
 28 29  1  1
 28 30  1  0
 30 31  1  0
 31 32  1  1
 32 33  1  0
 32 34  1  0
 34 35  1  0
 34 36  1  0
 31 37  1  0
 37 38  1  6
 24 39  1  0
 39 40  1  1
 39 41  1  0
 39 42  1  0
 42 43  1  0
 43 44  1  1
 43 45  1  0
 45 46  1  6
 46 47  1  0
 47 48  1  0
 48 49  2  0
 48 50  1  0
 50 51  1  0
 51 52  1  0
 45 53  1  0
 53 54  1  6
 53 55  1  0
 55 56  1  1
 55 57  1  0
 57 58  1  1
 57 59  1  0
 57  3  1  0
 21 11  1  0
 37 26  1  0
M  END
>  <ChEMBL_IDs>  (46) 
CHEMBL575518

>  <target_organism>  (46) 
Rattus norvegicus

>  <target_molecule_pref_name>  (46) 
None

>  <# Known Targets>  (46) 
1.0

>  <Known Targets>  (46) 
CHEMBL5306

>  <smiles>  (46) 
CC[C@H]1OC(=O)[C@H](C)[C@@H](O[C@H]2C[C@@](C)(OC)[C@@H](O)[C@H](C)O2)[C@H](C)[C@@H](O[C@@H]2O[C@H](C)C[C@H](N(C)C(C)C)[C@H]2O)[C@](C)(O)C[C@@H](C)[C@H](OCC(=O)NOC)[C@H](C)[C@@H](O)[C@]1(C)O

$$$$

     RDKit          2D

 65 67  0  0  0  0  0  0  0  0999 V2000
    5.8573   -1.2990    0.0000 C   0  0  0  0  0  0  0  0  0  0  0  0
    5.1073    0.0000    0.0000 C   0  0  0  0  0  0  0  0  0  0  0  0
    3.6073    0.0000    0.0000 C   0  0  0  0  0  0  0  0  0  0  0  0
    3.2954    1.4672    0.0000 O   0  0  0  0  0  0  0  0  0  0  0  0
    2.4138    2.6807    0.0000 C   0  0  0  0  0  0  0  0  0  0  0  0
    3.4175    3.7955    0.0000 O   0  0  0  0  0  0  0  0  0  0  0  0
    1.1147    3.4307    0.0000 C   0  0  0  0  0  0  0  0  0  0  0  0
    1.8302    4.5756    0.0000 C   0  0  0  0  0  0  0  0  0  0  0  0
   -0.3771    3.5875    0.0000 C   0  0  0  0  0  0  0  0  0  0  0  0
   -0.5339    5.0793    0.0000 O   0  0  0  0  0  0  0  0  0  0  0  0
    0.6797    5.9610    0.0000 C   0  0  0  0  0  0  0  0  0  0  0  0
    0.5229    7.4528    0.0000 C   0  0  0  0  0  0  0  0  0  0  0  0
    1.7364    8.3345    0.0000 C   0  0  0  0  0  0  0  0  0  0  0  0
    2.5752    9.5780    0.0000 C   0  0  0  0  0  0  0  0  0  0  0  0
    0.6574    9.3764    0.0000 O   0  0  0  0  0  0  0  0  0  0  0  0
    1.0203   10.8319    0.0000 C   0  0  0  0  0  0  0  0  0  0  0  0
    3.1067    7.7244    0.0000 C   0  0  0  0  0  0  0  0  0  0  0  0
    4.3202    8.6060    0.0000 O   0  0  0  0  0  0  0  0  0  0  0  0
    3.2635    6.2326    0.0000 C   0  0  0  0  0  0  0  0  0  0  0  0
    4.6338    5.6225    0.0000 C   0  0  0  0  0  0  0  0  0  0  0  0
    2.0500    5.3509    0.0000 O   0  0  0  0  0  0  0  0  0  0  0  0
   -1.8037    3.1240    0.0000 C   0  0  0  0  0  0  0  0  0  0  0  0
   -2.5537    4.4231    0.0000 C   0  0  0  0  0  0  0  0  0  0  0  0
   -2.9184    2.1203    0.0000 C   0  0  0  0  0  0  0  0  0  0  0  0
   -4.1319    3.0020    0.0000 O   0  0  0  0  0  0  0  0  0  0  0  0
   -5.5022    2.3919    0.0000 C   0  0  0  0  0  0  0  0  0  0  0  0
   -6.7157    3.2736    0.0000 O   0  0  0  0  0  0  0  0  0  0  0  0
   -8.0861    2.6635    0.0000 C   0  0  0  0  0  0  0  0  0  0  0  0
   -9.2996    3.5451    0.0000 C   0  0  0  0  0  0  0  0  0  0  0  0
   -8.2428    1.1717    0.0000 C   0  0  0  0  0  0  0  0  0  0  0  0
   -7.0293    0.2900    0.0000 C   0  0  0  0  0  0  0  0  0  0  0  0
   -7.1861   -1.2018    0.0000 N   0  0  0  0  0  0  0  0  0  0  0  0
   -8.5564   -1.8119    0.0000 C   0  0  0  0  0  0  0  0  0  0  0  0
   -5.9726   -2.0835    0.0000 C   0  0  0  0  0  0  0  0  0  0  0  0
   -5.6590    0.9001    0.0000 C   0  0  0  0  0  0  0  0  0  0  0  0
   -5.0760    0.3564    0.0000 O   0  0  0  0  0  0  0  0  0  0  0  0
   -3.5285    0.7500    0.0000 C   0  0  0  0  0  0  0  0  0  0  0  0
   -4.2257    0.3635    0.0000 C   0  0  0  0  0  0  0  0  0  0  0  0
   -4.5705    1.8290    0.0000 O   0  0  0  0  0  0  0  0  0  0  0  0
   -3.5285   -0.7500    0.0000 C   0  0  0  0  0  0  0  0  0  0  0  0
   -2.9184   -2.1203    0.0000 C   0  0  0  0  0  0  0  0  0  0  0  0
   -4.1319   -3.0020    0.0000 C   0  0  0  0  0  0  0  0  0  0  0  0
   -1.8037   -3.1240    0.0000 C   0  0  0  0  0  0  0  0  0  0  0  0
   -0.3771   -3.5875    0.0000 N   0  0  0  0  0  0  0  0  0  0  0  0
   -0.5339   -5.0793    0.0000 C   0  0  0  0  0  0  0  0  0  0  0  0
   -1.9042   -5.6894    0.0000 C   0  0  0  0  0  0  0  0  0  0  0  0
   -2.0610   -7.1812    0.0000 C   0  0  0  0  0  0  0  0  0  0  0  0
   -3.4313   -7.7913    0.0000 N   0  0  0  0  0  0  0  0  0  0  0  0
   -3.5881   -9.2831    0.0000 C   0  0  0  0  0  0  0  0  0  0  0  0
   -4.9584   -9.8932    0.0000 C   0  0  0  0  0  0  0  0  0  0  0  0
   -5.1152  -11.3850    0.0000 C   0  0  0  0  0  0  0  0  0  0  0  0
   -5.2720  -12.8768    0.0000 N   0  0  0  0  0  0  0  0  0  0  0  0
   -4.6448   -6.9096    0.0000 C   0  0  0  0  0  0  0  0  0  0  0  0
   -4.4880   -5.4179    0.0000 O   0  0  0  0  0  0  0  0  0  0  0  0
   -6.0151   -7.5197    0.0000 N   0  0  0  0  0  0  0  0  0  0  0  0
   -7.2287   -6.6381    0.0000 C   0  0  0  0  0  0  0  0  0  0  0  0
   -8.5990   -7.2482    0.0000 C   0  0  0  0  0  0  0  0  0  0  0  0
   -7.0719   -5.1463    0.0000 C   0  0  0  0  0  0  0  0  0  0  0  0
    1.1147   -3.4307    0.0000 C   0  0  0  0  0  0  0  0  0  0  0  0
    1.5782   -4.8573    0.0000 C   0  0  0  0  0  0  0  0  0  0  0  0
    2.4138   -2.6807    0.0000 C   0  0  0  0  0  0  0  0  0  0  0  0
    3.4175   -3.7955    0.0000 O   0  0  0  0  0  0  0  0  0  0  0  0
    3.2954   -1.4672    0.0000 C   0  0  0  0  0  0  0  0  0  0  0  0
    4.7726   -1.2067    0.0000 C   0  0  0  0  0  0  0  0  0  0  0  0
    4.0903   -2.7393    0.0000 O   0  0  0  0  0  0  0  0  0  0  0  0
  1  2  1  0
  3  2  1  6
  3  4  1  0
  4  5  1  0
  5  6  2  0
  5  7  1  0
  7  8  1  1
  7  9  1  0
  9 10  1  6
 11 10  1  1
 11 12  1  0
 12 13  1  0
 13 14  1  6
 13 15  1  0
 15 16  1  0
 13 17  1  0
 17 18  1  1
 17 19  1  0
 19 20  1  6
 19 21  1  0
  9 22  1  0
 22 23  1  1
 22 24  1  0
 24 25  1  6
 26 25  1  1
 26 27  1  0
 27 28  1  0
 28 29  1  1
 28 30  1  0
 30 31  1  0
 31 32  1  1
 32 33  1  0
 32 34  1  0
 31 35  1  0
 35 36  1  6
 24 37  1  0
 37 38  1  6
 37 39  1  0
 37 40  1  0
 40 41  1  0
 41 42  1  6
 41 43  1  0
 43 44  1  0
 44 45  1  0
 45 46  1  0
 46 47  1  0
 47 48  1  0
 48 49  1  0
 49 50  1  0
 50 51  1  0
 51 52  3  0
 48 53  1  0
 53 54  2  0
 53 55  1  0
 55 56  1  0
 56 57  1  0
 56 58  1  0
 44 59  1  0
 59 60  1  1
 59 61  1  0
 61 62  1  6
 61 63  1  0
 63 64  1  6
 63 65  1  0
 63  3  1  0
 21 11  1  0
 35 26  1  0
M  END
>  <ChEMBL_IDs>  (47) 
CHEMBL541735

>  <target_organism>  (47) 
Rattus norvegicus

>  <target_molecule_pref_name>  (47) 
None

>  <# Known Targets>  (47) 
1.0

>  <Known Targets>  (47) 
CHEMBL364

>  <smiles>  (47) 
CC[C@H]1OC(=O)[C@H](C)[C@@H](O[C@H]2C[C@@](C)(OC)[C@@H](O)[C@H](C)O2)[C@H](C)[C@@H](O[C@@H]2O[C@H](C)C[C@H](N(C)C)[C@H]2O)[C@](C)(O)C[C@@H](C)CN(CCCN(CCC#N)C(=O)NC(C)C)[C@H](C)[C@@H](O)[C@]1(C)O

$$$$

     RDKit          2D

 58 60  0  0  0  0  0  0  0  0999 V2000
    5.6205   -1.2990    0.0000 C   0  0  0  0  0  0  0  0  0  0  0  0
    4.8705    0.0000    0.0000 C   0  0  0  0  0  0  0  0  0  0  0  0
    3.3705    0.0000    0.0000 C   0  0  0  0  0  0  0  0  0  0  0  0
    3.0367   -1.4624    0.0000 O   0  0  0  0  0  0  0  0  0  0  0  0
    2.1015   -2.6351    0.0000 C   0  0  0  0  0  0  0  0  0  0  0  0
    3.0367   -3.8079    0.0000 O   0  0  0  0  0  0  0  0  0  0  0  0
    0.7500   -3.2860    0.0000 C   0  0  0  0  0  0  0  0  0  0  0  0
    1.3600   -4.4903    0.0000 C   0  0  0  0  0  0  0  0  0  0  0  0
   -0.7500   -3.2860    0.0000 C   0  0  0  0  0  0  0  0  0  0  0  0
   -1.0838   -4.7484    0.0000 O   0  0  0  0  0  0  0  0  0  0  0  0
    0.0158   -5.7686    0.0000 C   0  0  0  0  0  0  0  0  0  0  0  0
   -0.3180   -7.2310    0.0000 C   0  0  0  0  0  0  0  0  0  0  0  0
    0.7816   -8.2513    0.0000 C   0  0  0  0  0  0  0  0  0  0  0  0
    1.4659   -9.5861    0.0000 C   0  0  0  0  0  0  0  0  0  0  0  0
   -0.4141   -9.1570    0.0000 O   0  0  0  0  0  0  0  0  0  0  0  0
   -0.2276  -10.6453    0.0000 C   0  0  0  0  0  0  0  0  0  0  0  0
    2.2150   -7.8091    0.0000 C   0  0  0  0  0  0  0  0  0  0  0  0
    3.3145   -8.8294    0.0000 O   0  0  0  0  0  0  0  0  0  0  0  0
    2.5487   -6.3467    0.0000 C   0  0  0  0  0  0  0  0  0  0  0  0
    3.9821   -5.9046    0.0000 C   0  0  0  0  0  0  0  0  0  0  0  0
    1.4492   -5.3265    0.0000 O   0  0  0  0  0  0  0  0  0  0  0  0
   -2.1015   -2.6351    0.0000 C   0  0  0  0  0  0  0  0  0  0  0  0
   -3.0367   -3.8079    0.0000 C   0  0  0  0  0  0  0  0  0  0  0  0
   -3.0367   -1.4624    0.0000 C   0  0  0  0  0  0  0  0  0  0  0  0
   -4.3881   -2.1132    0.0000 O   0  0  0  0  0  0  0  0  0  0  0  0
   -5.6275   -1.2682    0.0000 C   0  0  0  0  0  0  0  0  0  0  0  0
   -5.5154    0.2276    0.0000 O   0  0  0  0  0  0  0  0  0  0  0  0
   -6.7548    1.0725    0.0000 C   0  0  0  0  0  0  0  0  0  0  0  0
   -6.6427    2.5684    0.0000 C   0  0  0  0  0  0  0  0  0  0  0  0
   -8.1062    0.4217    0.0000 C   0  0  0  0  0  0  0  0  0  0  0  0
   -8.2183   -1.0741    0.0000 C   0  0  0  0  0  0  0  0  0  0  0  0
   -9.5698   -1.7249    0.0000 N   0  0  0  0  0  0  0  0  0  0  0  0
  -10.8091   -0.8799    0.0000 C   0  0  0  0  0  0  0  0  0  0  0  0
   -9.6819   -3.2207    0.0000 C   0  0  0  0  0  0  0  0  0  0  0  0
  -11.0333   -3.8715    0.0000 C   0  0  0  0  0  0  0  0  0  0  0  0
   -8.4425   -4.0657    0.0000 C   0  0  0  0  0  0  0  0  0  0  0  0
   -6.9790   -1.9191    0.0000 C   0  0  0  0  0  0  0  0  0  0  0  0
   -7.0910   -3.4149    0.0000 O   0  0  0  0  0  0  0  0  0  0  0  0
   -3.3705    0.0000    0.0000 C   0  0  0  0  0  0  0  0  0  0  0  0
   -4.6098   -0.8450    0.0000 C   0  0  0  0  0  0  0  0  0  0  0  0
   -4.6098    0.8450    0.0000 O   0  0  0  0  0  0  0  0  0  0  0  0
   -3.0367    1.4624    0.0000 C   0  0  0  0  0  0  0  0  0  0  0  0
   -2.1015    2.6351    0.0000 C   0  0  0  0  0  0  0  0  0  0  0  0
   -3.0367    3.8079    0.0000 C   0  0  0  0  0  0  0  0  0  0  0  0
   -0.7500    3.2860    0.0000 C   0  0  0  0  0  0  0  0  0  0  0  0
   -1.0838    4.7484    0.0000 O   0  0  0  0  0  0  0  0  0  0  0  0
    0.0158    5.7686    0.0000 C   0  0  0  0  0  0  0  0  0  0  0  0
   -0.3180    7.2310    0.0000 C   0  0  0  0  0  0  0  0  0  0  0  0
    0.7816    8.2513    0.0000 N   0  0  0  0  0  0  0  0  0  0  0  0
    0.4478    9.7137    0.0000 C   0  0  0  0  0  0  0  0  0  0  0  0
    1.5474   10.7339    0.0000 O   0  0  0  0  0  0  0  0  0  0  0  0
    0.7500    3.2860    0.0000 C   0  0  0  0  0  0  0  0  0  0  0  0
    1.0838    4.7484    0.0000 C   0  0  0  0  0  0  0  0  0  0  0  0
    2.1015    2.6351    0.0000 C   0  0  0  0  0  0  0  0  0  0  0  0
    3.0367    3.8079    0.0000 O   0  0  0  0  0  0  0  0  0  0  0  0
    3.0367    1.4624    0.0000 C   0  0  0  0  0  0  0  0  0  0  0  0
    3.7867    2.7614    0.0000 C   0  0  0  0  0  0  0  0  0  0  0  0
    4.5199    1.2388    0.0000 O   0  0  0  0  0  0  0  0  0  0  0  0
  1  2  1  0
  3  2  1  1
  3  4  1  0
  4  5  1  0
  5  6  2  0
  5  7  1  0
  7  8  1  6
  7  9  1  0
  9 10  1  1
 11 10  1  6
 11 12  1  0
 12 13  1  0
 13 14  1  1
 13 15  1  0
 15 16  1  0
 13 17  1  0
 17 18  1  6
 17 19  1  0
 19 20  1  1
 19 21  1  0
  9 22  1  0
 22 23  1  6
 22 24  1  0
 24 25  1  1
 26 25  1  1
 26 27  1  0
 27 28  1  0
 28 29  1  1
 28 30  1  0
 30 31  1  0
 31 32  1  1
 32 33  1  0
 32 34  1  0
 34 35  1  0
 34 36  1  0
 31 37  1  0
 37 38  1  6
 24 39  1  0
 39 40  1  1
 39 41  1  0
 39 42  1  0
 42 43  1  0
 43 44  1  1
 43 45  1  0
 45 46  1  6
 46 47  1  0
 47 48  1  0
 48 49  1  0
 49 50  1  0
 50 51  2  0
 45 52  1  0
 52 53  1  6
 52 54  1  0
 54 55  1  1
 54 56  1  0
 56 57  1  1
 56 58  1  0
 56  3  1  0
 21 11  1  0
 37 26  1  0
M  END
>  <ChEMBL_IDs>  (48) 
CHEMBL1269436

>  <target_organism>  (48) 
nan

>  <target_molecule_pref_name>  (48) 
None

>  <# Known Targets>  (48) 
1.0

>  <Known Targets>  (48) 
CHEMBL3879801

>  <smiles>  (48) 
CC[C@H]1OC(=O)[C@H](C)[C@@H](O[C@H]2C[C@@](C)(OC)[C@@H](O)[C@H](C)O2)[C@H](C)[C@@H](O[C@@H]2O[C@H](C)C[C@H](N(C)C(C)C)[C@H]2O)[C@](C)(O)C[C@@H](C)[C@H](OCCNC=O)[C@H](C)[C@@H](O)[C@]1(C)O

$$$$

     RDKit          2D

 66 68  0  0  0  0  0  0  0  0999 V2000
    5.8573   -1.2990    0.0000 C   0  0  0  0  0  0  0  0  0  0  0  0
    5.1073    0.0000    0.0000 C   0  0  0  0  0  0  0  0  0  0  0  0
    3.6073    0.0000    0.0000 C   0  0  0  0  0  0  0  0  0  0  0  0
    3.2954    1.4672    0.0000 O   0  0  0  0  0  0  0  0  0  0  0  0
    2.4138    2.6807    0.0000 C   0  0  0  0  0  0  0  0  0  0  0  0
    3.4175    3.7955    0.0000 O   0  0  0  0  0  0  0  0  0  0  0  0
    1.1147    3.4307    0.0000 C   0  0  0  0  0  0  0  0  0  0  0  0
    1.8302    4.5756    0.0000 C   0  0  0  0  0  0  0  0  0  0  0  0
   -0.3771    3.5875    0.0000 C   0  0  0  0  0  0  0  0  0  0  0  0
   -0.5339    5.0793    0.0000 O   0  0  0  0  0  0  0  0  0  0  0  0
    0.6797    5.9610    0.0000 C   0  0  0  0  0  0  0  0  0  0  0  0
    0.5229    7.4528    0.0000 C   0  0  0  0  0  0  0  0  0  0  0  0
    1.7364    8.3345    0.0000 C   0  0  0  0  0  0  0  0  0  0  0  0
    2.5752    9.5780    0.0000 C   0  0  0  0  0  0  0  0  0  0  0  0
    0.6574    9.3764    0.0000 O   0  0  0  0  0  0  0  0  0  0  0  0
    1.0203   10.8319    0.0000 C   0  0  0  0  0  0  0  0  0  0  0  0
    3.1067    7.7244    0.0000 C   0  0  0  0  0  0  0  0  0  0  0  0
    4.3202    8.6060    0.0000 O   0  0  0  0  0  0  0  0  0  0  0  0
    3.2635    6.2326    0.0000 C   0  0  0  0  0  0  0  0  0  0  0  0
    4.6338    5.6225    0.0000 C   0  0  0  0  0  0  0  0  0  0  0  0
    2.0500    5.3509    0.0000 O   0  0  0  0  0  0  0  0  0  0  0  0
   -1.8037    3.1240    0.0000 C   0  0  0  0  0  0  0  0  0  0  0  0
   -2.5537    4.4231    0.0000 C   0  0  0  0  0  0  0  0  0  0  0  0
   -2.9184    2.1203    0.0000 C   0  0  0  0  0  0  0  0  0  0  0  0
   -4.1319    3.0020    0.0000 O   0  0  0  0  0  0  0  0  0  0  0  0
   -5.5022    2.3919    0.0000 C   0  0  0  0  0  0  0  0  0  0  0  0
   -6.7157    3.2736    0.0000 O   0  0  0  0  0  0  0  0  0  0  0  0
   -8.0861    2.6635    0.0000 C   0  0  0  0  0  0  0  0  0  0  0  0
   -9.2996    3.5451    0.0000 C   0  0  0  0  0  0  0  0  0  0  0  0
   -8.2428    1.1717    0.0000 C   0  0  0  0  0  0  0  0  0  0  0  0
   -7.0293    0.2900    0.0000 C   0  0  0  0  0  0  0  0  0  0  0  0
   -7.1861   -1.2018    0.0000 N   0  0  0  0  0  0  0  0  0  0  0  0
   -8.5564   -1.8119    0.0000 C   0  0  0  0  0  0  0  0  0  0  0  0
   -5.9726   -2.0835    0.0000 C   0  0  0  0  0  0  0  0  0  0  0  0
   -5.6590    0.9001    0.0000 C   0  0  0  0  0  0  0  0  0  0  0  0
   -5.0760    0.3564    0.0000 O   0  0  0  0  0  0  0  0  0  0  0  0
   -3.5285    0.7500    0.0000 C   0  0  0  0  0  0  0  0  0  0  0  0
   -4.2257    0.3635    0.0000 C   0  0  0  0  0  0  0  0  0  0  0  0
   -4.5705    1.8290    0.0000 O   0  0  0  0  0  0  0  0  0  0  0  0
   -3.5285   -0.7500    0.0000 C   0  0  0  0  0  0  0  0  0  0  0  0
   -2.9184   -2.1203    0.0000 C   0  0  0  0  0  0  0  0  0  0  0  0
   -4.1319   -3.0020    0.0000 C   0  0  0  0  0  0  0  0  0  0  0  0
   -1.8037   -3.1240    0.0000 C   0  0  0  0  0  0  0  0  0  0  0  0
   -0.3771   -3.5875    0.0000 N   0  0  0  0  0  0  0  0  0  0  0  0
   -0.5339   -5.0793    0.0000 C   0  0  0  0  0  0  0  0  0  0  0  0
   -1.9042   -5.6894    0.0000 C   0  0  0  0  0  0  0  0  0  0  0  0
   -2.0610   -7.1812    0.0000 C   0  0  0  0  0  0  0  0  0  0  0  0
   -3.4313   -7.7913    0.0000 N   0  0  0  0  0  0  0  0  0  0  0  0
   -3.5881   -9.2831    0.0000 C   0  0  0  0  0  0  0  0  0  0  0  0
   -2.3746  -10.1648    0.0000 S   0  0  0  0  0  0  0  0  0  0  0  0
   -4.9584   -9.8932    0.0000 N   0  0  0  0  0  0  0  0  0  0  0  0
   -5.1152  -11.3850    0.0000 C   0  0  0  0  0  0  0  0  0  0  0  0
   -6.4855  -11.9951    0.0000 C   0  0  0  0  0  0  0  0  0  0  0  0
   -6.6423  -13.4869    0.0000 C   0  0  0  0  0  0  0  0  0  0  0  0
   -8.0126  -14.0970    0.0000 N   0  0  0  0  0  0  0  0  0  0  0  0
   -8.1694  -15.5888    0.0000 C   0  0  0  0  0  0  0  0  0  0  0  0
   -9.5397  -16.1989    0.0000 C   0  0  0  0  0  0  0  0  0  0  0  0
   -9.2261  -13.2153    0.0000 C   0  0  0  0  0  0  0  0  0  0  0  0
  -10.5965  -13.8254    0.0000 C   0  0  0  0  0  0  0  0  0  0  0  0
    1.1147   -3.4307    0.0000 C   0  0  0  0  0  0  0  0  0  0  0  0
    1.5782   -4.8573    0.0000 C   0  0  0  0  0  0  0  0  0  0  0  0
    2.4138   -2.6807    0.0000 C   0  0  0  0  0  0  0  0  0  0  0  0
    3.4175   -3.7955    0.0000 O   0  0  0  0  0  0  0  0  0  0  0  0
    3.2954   -1.4672    0.0000 C   0  0  0  0  0  0  0  0  0  0  0  0
    4.7726   -1.2067    0.0000 C   0  0  0  0  0  0  0  0  0  0  0  0
    4.0903   -2.7393    0.0000 O   0  0  0  0  0  0  0  0  0  0  0  0
  1  2  1  0
  3  2  1  6
  3  4  1  0
  4  5  1  0
  5  6  2  0
  5  7  1  0
  7  8  1  1
  7  9  1  0
  9 10  1  6
 11 10  1  1
 11 12  1  0
 12 13  1  0
 13 14  1  6
 13 15  1  0
 15 16  1  0
 13 17  1  0
 17 18  1  1
 17 19  1  0
 19 20  1  6
 19 21  1  0
  9 22  1  0
 22 23  1  1
 22 24  1  0
 24 25  1  6
 26 25  1  1
 26 27  1  0
 27 28  1  0
 28 29  1  1
 28 30  1  0
 30 31  1  0
 31 32  1  1
 32 33  1  0
 32 34  1  0
 31 35  1  0
 35 36  1  6
 24 37  1  0
 37 38  1  6
 37 39  1  0
 37 40  1  0
 40 41  1  0
 41 42  1  6
 41 43  1  0
 43 44  1  0
 44 45  1  0
 45 46  1  0
 46 47  1  0
 47 48  1  0
 48 49  1  0
 49 50  2  0
 49 51  1  0
 51 52  1  0
 52 53  1  0
 53 54  1  0
 54 55  1  0
 55 56  1  0
 56 57  1  0
 55 58  1  0
 58 59  1  0
 44 60  1  0
 60 61  1  1
 60 62  1  0
 62 63  1  6
 62 64  1  0
 64 65  1  6
 64 66  1  0
 64  3  1  0
 21 11  1  0
 35 26  1  0
M  END
>  <ChEMBL_IDs>  (49) 
CHEMBL1682728

>  <target_organism>  (49) 
Homo sapiens,None,Escherichia coli K-12

>  <target_molecule_pref_name>  (49) 
None

>  <# Known Targets>  (49) 
1.0

>  <Known Targets>  (49) 
CHEMBL364

>  <smiles>  (49) 
CC[C@H]1OC(=O)[C@H](C)[C@@H](O[C@H]2C[C@@](C)(OC)[C@@H](O)[C@H](C)O2)[C@H](C)[C@@H](O[C@@H]2O[C@H](C)C[C@H](N(C)C)[C@H]2O)[C@](C)(O)C[C@@H](C)CN(CCCNC(=S)NCCCN(CC)CC)[C@H](C)[C@@H](O)[C@]1(C)O

$$$$

     RDKit          2D

 57 59  0  0  0  0  0  0  0  0999 V2000
    5.6205   -1.2990    0.0000 C   0  0  0  0  0  0  0  0  0  0  0  0
    4.8705    0.0000    0.0000 C   0  0  0  0  0  0  0  0  0  0  0  0
    3.3705    0.0000    0.0000 C   0  0  0  0  0  0  0  0  0  0  0  0
    3.0367   -1.4624    0.0000 O   0  0  0  0  0  0  0  0  0  0  0  0
    2.1015   -2.6351    0.0000 C   0  0  0  0  0  0  0  0  0  0  0  0
    3.0367   -3.8079    0.0000 O   0  0  0  0  0  0  0  0  0  0  0  0
    0.7500   -3.2860    0.0000 C   0  0  0  0  0  0  0  0  0  0  0  0
    1.3600   -4.4903    0.0000 C   0  0  0  0  0  0  0  0  0  0  0  0
   -0.7500   -3.2860    0.0000 C   0  0  0  0  0  0  0  0  0  0  0  0
   -1.0838   -4.7484    0.0000 O   0  0  0  0  0  0  0  0  0  0  0  0
    0.0158   -5.7686    0.0000 C   0  0  0  0  0  0  0  0  0  0  0  0
   -0.3180   -7.2310    0.0000 C   0  0  0  0  0  0  0  0  0  0  0  0
    0.7816   -8.2513    0.0000 C   0  0  0  0  0  0  0  0  0  0  0  0
    1.4659   -9.5861    0.0000 C   0  0  0  0  0  0  0  0  0  0  0  0
   -0.4141   -9.1570    0.0000 O   0  0  0  0  0  0  0  0  0  0  0  0
   -0.2276  -10.6453    0.0000 C   0  0  0  0  0  0  0  0  0  0  0  0
    2.2150   -7.8091    0.0000 C   0  0  0  0  0  0  0  0  0  0  0  0
    3.3145   -8.8294    0.0000 O   0  0  0  0  0  0  0  0  0  0  0  0
    2.5487   -6.3467    0.0000 C   0  0  0  0  0  0  0  0  0  0  0  0
    3.9821   -5.9046    0.0000 C   0  0  0  0  0  0  0  0  0  0  0  0
    1.4492   -5.3265    0.0000 O   0  0  0  0  0  0  0  0  0  0  0  0
   -2.1015   -2.6351    0.0000 C   0  0  0  0  0  0  0  0  0  0  0  0
   -3.0367   -3.8079    0.0000 C   0  0  0  0  0  0  0  0  0  0  0  0
   -3.0367   -1.4624    0.0000 C   0  0  0  0  0  0  0  0  0  0  0  0
   -4.3881   -2.1132    0.0000 O   0  0  0  0  0  0  0  0  0  0  0  0
   -5.6275   -1.2682    0.0000 C   0  0  0  0  0  0  0  0  0  0  0  0
   -5.5154    0.2276    0.0000 O   0  0  0  0  0  0  0  0  0  0  0  0
   -6.7548    1.0725    0.0000 C   0  0  0  0  0  0  0  0  0  0  0  0
   -6.6427    2.5684    0.0000 C   0  0  0  0  0  0  0  0  0  0  0  0
   -8.1062    0.4217    0.0000 C   0  0  0  0  0  0  0  0  0  0  0  0
   -8.2183   -1.0741    0.0000 C   0  0  0  0  0  0  0  0  0  0  0  0
   -9.5698   -1.7249    0.0000 N   0  0  0  0  0  0  0  0  0  0  0  0
  -10.8091   -0.8799    0.0000 C   0  0  0  0  0  0  0  0  0  0  0  0
   -9.6819   -3.2207    0.0000 C   0  0  0  0  0  0  0  0  0  0  0  0
  -11.0333   -3.8715    0.0000 C   0  0  0  0  0  0  0  0  0  0  0  0
   -8.4425   -4.0657    0.0000 C   0  0  0  0  0  0  0  0  0  0  0  0
   -6.9790   -1.9191    0.0000 C   0  0  0  0  0  0  0  0  0  0  0  0
   -7.0910   -3.4149    0.0000 O   0  0  0  0  0  0  0  0  0  0  0  0
   -3.3705    0.0000    0.0000 C   0  0  0  0  0  0  0  0  0  0  0  0
   -4.6098   -0.8450    0.0000 C   0  0  0  0  0  0  0  0  0  0  0  0
   -4.6098    0.8450    0.0000 O   0  0  0  0  0  0  0  0  0  0  0  0
   -3.0367    1.4624    0.0000 C   0  0  0  0  0  0  0  0  0  0  0  0
   -2.1015    2.6351    0.0000 C   0  0  0  0  0  0  0  0  0  0  0  0
   -3.0367    3.8079    0.0000 C   0  0  0  0  0  0  0  0  0  0  0  0
   -0.7500    3.2860    0.0000 C   0  0  0  0  0  0  0  0  0  0  0  0
   -1.0838    4.7484    0.0000 O   0  0  0  0  0  0  0  0  0  0  0  0
    0.0158    5.7686    0.0000 C   0  0  0  0  0  0  0  0  0  0  0  0
   -0.3180    7.2310    0.0000 C   0  0  0  0  0  0  0  0  0  0  0  0
   -1.7513    7.6731    0.0000 O   0  0  0  0  0  0  0  0  0  0  0  0
    0.7816    8.2513    0.0000 N   0  0  0  0  0  0  0  0  0  0  0  0
    0.4478    9.7137    0.0000 C   0  0  0  0  0  0  0  0  0  0  0  0
    0.7500    3.2860    0.0000 C   0  0  0  0  0  0  0  0  0  0  0  0
    1.0838    4.7484    0.0000 C   0  0  0  0  0  0  0  0  0  0  0  0
    2.1015    2.6351    0.0000 C   0  0  0  0  0  0  0  0  0  0  0  0
    3.0367    3.8079    0.0000 O   0  0  0  0  0  0  0  0  0  0  0  0
    3.0367    1.4624    0.0000 C   0  0  0  0  0  0  0  0  0  0  0  0
    4.3881    2.1132    0.0000 C   0  0  0  0  0  0  0  0  0  0  0  0
  1  2  1  0
  3  2  1  1
  3  4  1  0
  4  5  1  0
  5  6  2  0
  5  7  1  0
  7  8  1  6
  7  9  1  0
  9 10  1  1
 11 10  1  6
 11 12  1  0
 12 13  1  0
 13 14  1  1
 13 15  1  0
 15 16  1  0
 13 17  1  0
 17 18  1  6
 17 19  1  0
 19 20  1  1
 19 21  1  0
  9 22  1  0
 22 23  1  6
 22 24  1  0
 24 25  1  1
 26 25  1  1
 26 27  1  0
 27 28  1  0
 28 29  1  1
 28 30  1  0
 30 31  1  0
 31 32  1  1
 32 33  1  0
 32 34  1  0
 34 35  1  0
 34 36  1  0
 31 37  1  0
 37 38  1  6
 24 39  1  0
 39 40  1  1
 39 41  1  0
 39 42  1  0
 42 43  1  0
 43 44  1  1
 43 45  1  0
 45 46  1  6
 46 47  1  0
 47 48  1  0
 48 49  2  0
 48 50  1  0
 50 51  1  0
 45 52  1  0
 52 53  1  6
 52 54  1  0
 54 55  1  1
 54 56  1  0
 56 57  1  1
 56  3  1  0
 21 11  1  0
 37 26  1  0
M  END
>  <ChEMBL_IDs>  (50) 
CHEMBL583098

>  <target_organism>  (50) 
Rattus norvegicus

>  <target_molecule_pref_name>  (50) 
None

>  <# Known Targets>  (50) 
1.0

>  <Known Targets>  (50) 
CHEMBL5306

>  <smiles>  (50) 
CC[C@H]1OC(=O)[C@H](C)[C@@H](O[C@H]2C[C@@](C)(OC)[C@@H](O)[C@H](C)O2)[C@H](C)[C@@H](O[C@@H]2O[C@H](C)C[C@H](N(C)C(C)C)[C@H]2O)[C@](C)(O)C[C@@H](C)[C@H](OCC(=O)NC)[C@H](C)[C@@H](O)[C@H]1C

$$$$

     RDKit          2D

 56 58  0  0  0  0  0  0  0  0999 V2000
    7.4426   -1.0200    0.0000 C   0  0  0  0  0  0  0  0  0  0  0  0
    6.1990   -0.1812    0.0000 C   0  0  0  0  0  0  0  0  0  0  0  0
    4.8509   -0.8388    0.0000 O   0  0  0  0  0  0  0  0  0  0  0  0
    3.6073    0.0000    0.0000 C   0  0  0  0  0  0  0  0  0  0  0  0
    4.7393    0.9841    0.0000 C   0  0  0  0  0  0  0  0  0  0  0  0
    3.2954    1.4672    0.0000 C   0  0  0  0  0  0  0  0  0  0  0  0
    2.4138    2.6807    0.0000 C   0  0  0  0  0  0  0  0  0  0  0  0
    3.4175    3.7955    0.0000 C   0  0  0  0  0  0  0  0  0  0  0  0
    1.1147    3.4307    0.0000 C   0  0  0  0  0  0  0  0  0  0  0  0
   -0.3771    3.5875    0.0000 N   0  0  0  0  0  0  0  0  0  0  0  0
   -0.5339    5.0793    0.0000 C   0  0  0  0  0  0  0  0  0  0  0  0
    0.6797    5.9610    0.0000 C   0  0  0  0  0  0  0  0  0  0  0  0
    0.5229    7.4528    0.0000 C   0  0  0  0  0  0  0  0  0  0  0  0
   -1.8037    3.1240    0.0000 C   0  0  0  0  0  0  0  0  0  0  0  0
   -2.5537    4.4231    0.0000 C   0  0  0  0  0  0  0  0  0  0  0  0
   -2.9184    2.1203    0.0000 C   0  0  0  0  0  0  0  0  0  0  0  0
   -4.1319    3.0020    0.0000 O   0  0  0  0  0  0  0  0  0  0  0  0
   -3.5285    0.7500    0.0000 C   0  0  0  0  0  0  0  0  0  0  0  0
   -4.9192    0.1881    0.0000 C   0  0  0  0  0  0  0  0  0  0  0  0
   -4.5705    1.8290    0.0000 O   0  0  0  0  0  0  0  0  0  0  0  0
   -3.5285   -0.7500    0.0000 C   0  0  0  0  0  0  0  0  0  0  0  0
   -4.9957   -1.0619    0.0000 C   0  0  0  0  0  0  0  0  0  0  0  0
   -5.9994    0.0528    0.0000 C   0  0  0  0  0  0  0  0  0  0  0  0
   -2.9184   -2.1203    0.0000 O   0  0  0  0  0  0  0  0  0  0  0  0
   -1.8037   -3.1240    0.0000 C   0  0  0  0  0  0  0  0  0  0  0  0
   -2.5537   -4.4231    0.0000 O   0  0  0  0  0  0  0  0  0  0  0  0
   -0.3771   -3.5875    0.0000 C   0  0  0  0  0  0  0  0  0  0  0  0
   -0.8389   -4.8561    0.0000 C   0  0  0  0  0  0  0  0  0  0  0  0
    1.1147   -3.4307    0.0000 C   0  0  0  0  0  0  0  0  0  0  0  0
    1.5782   -4.8573    0.0000 O   0  0  0  0  0  0  0  0  0  0  0  0
    0.5745   -5.9720    0.0000 C   0  0  0  0  0  0  0  0  0  0  0  0
    1.0381   -7.3986    0.0000 C   0  0  0  0  0  0  0  0  0  0  0  0
    0.0344   -8.5134    0.0000 C   0  0  0  0  0  0  0  0  0  0  0  0
   -0.5275   -9.9041    0.0000 C   0  0  0  0  0  0  0  0  0  0  0  0
    1.3064   -9.3082    0.0000 O   0  0  0  0  0  0  0  0  0  0  0  0
    1.2541  -10.8073    0.0000 C   0  0  0  0  0  0  0  0  0  0  0  0
   -1.4328   -8.2015    0.0000 C   0  0  0  0  0  0  0  0  0  0  0  0
   -2.4365   -9.3162    0.0000 O   0  0  0  0  0  0  0  0  0  0  0  0
   -1.8964   -6.7749    0.0000 C   0  0  0  0  0  0  0  0  0  0  0  0
   -3.3636   -6.4630    0.0000 C   0  0  0  0  0  0  0  0  0  0  0  0
   -0.8927   -5.6602    0.0000 O   0  0  0  0  0  0  0  0  0  0  0  0
    2.4138   -2.6807    0.0000 C   0  0  0  0  0  0  0  0  0  0  0  0
    3.4175   -3.7955    0.0000 C   0  0  0  0  0  0  0  0  0  0  0  0
    3.2954   -1.4672    0.0000 C   0  0  0  0  0  0  0  0  0  0  0  0
    4.6658   -2.0773    0.0000 O   0  0  0  0  0  0  0  0  0  0  0  0
    5.8793   -1.1956    0.0000 C   0  0  0  0  0  0  0  0  0  0  0  0
    7.2496   -1.8058    0.0000 O   0  0  0  0  0  0  0  0  0  0  0  0
    8.4631   -0.9241    0.0000 C   0  0  0  0  0  0  0  0  0  0  0  0
    9.8334   -1.5342    0.0000 C   0  0  0  0  0  0  0  0  0  0  0  0
    8.3063    0.5677    0.0000 C   0  0  0  0  0  0  0  0  0  0  0  0
    6.9360    1.1778    0.0000 C   0  0  0  0  0  0  0  0  0  0  0  0
    6.7792    2.6696    0.0000 N   0  0  0  0  0  0  0  0  0  0  0  0
    7.9927    3.5513    0.0000 C   0  0  0  0  0  0  0  0  0  0  0  0
    5.4089    3.2797    0.0000 C   0  0  0  0  0  0  0  0  0  0  0  0
    5.7225    0.2961    0.0000 C   0  0  0  0  0  0  0  0  0  0  0  0
    4.4368    1.0687    0.0000 O   0  0  0  0  0  0  0  0  0  0  0  0
  1  2  2  0
  2  3  1  0
  3  4  1  0
  4  5  1  6
  4  6  1  0
  6  7  1  0
  7  8  1  6
  7  9  1  0
  9 10  1  0
 10 11  1  0
 11 12  1  0
 12 13  1  0
 10 14  1  0
 14 15  1  1
 14 16  1  0
 16 17  1  6
 16 18  1  0
 18 19  1  6
 18 20  1  0
 18 21  1  0
 21 22  1  6
 22 23  1  0
 21 24  1  0
 24 25  1  0
 25 26  2  0
 25 27  1  0
 27 28  1  1
 27 29  1  0
 29 30  1  6
 31 30  1  1
 31 32  1  0
 32 33  1  0
 33 34  1  6
 33 35  1  0
 35 36  1  0
 33 37  1  0
 37 38  1  1
 37 39  1  0
 39 40  1  6
 39 41  1  0
 29 42  1  0
 42 43  1  1
 42 44  1  0
 44 45  1  6
 46 45  1  1
 46 47  1  0
 47 48  1  0
 48 49  1  1
 48 50  1  0
 50 51  1  0
 51 52  1  1
 52 53  1  0
 52 54  1  0
 51 55  1  0
 55 56  1  6
 44  4  1  0
 55 46  1  0
 41 31  1  0
M  END
>  <ChEMBL_IDs>  (51) 
CHEMBL1774302

>  <target_organism>  (51) 
Homo sapiens,None,Escherichia coli K-12

>  <target_molecule_pref_name>  (51) 
None

>  <# Known Targets>  (51) 
1.0

>  <Known Targets>  (51) 
CHEMBL612888

>  <smiles>  (51) 
C=CO[C@]1(C)C[C@@H](C)CN(CCC)[C@H](C)[C@@H](O)[C@](C)(O)[C@@H](CC)OC(=O)[C@H](C)[C@@H](O[C@H]2C[C@@](C)(OC)[C@@H](O)[C@H](C)O2)[C@H](C)[C@H]1O[C@@H]1O[C@H](C)C[C@H](N(C)C)[C@H]1O

$$$$

     RDKit          2D

 58 60  0  0  0  0  0  0  0  0999 V2000
    7.4426   -1.0200    0.0000 C   0  0  0  0  0  0  0  0  0  0  0  0
    6.1990   -0.1812    0.0000 C   0  0  0  0  0  0  0  0  0  0  0  0
    4.8509   -0.8388    0.0000 O   0  0  0  0  0  0  0  0  0  0  0  0
    3.6073    0.0000    0.0000 C   0  0  0  0  0  0  0  0  0  0  0  0
    4.7393    0.9841    0.0000 C   0  0  0  0  0  0  0  0  0  0  0  0
    3.2954    1.4672    0.0000 C   0  0  0  0  0  0  0  0  0  0  0  0
    2.4138    2.6807    0.0000 C   0  0  0  0  0  0  0  0  0  0  0  0
    3.4175    3.7955    0.0000 C   0  0  0  0  0  0  0  0  0  0  0  0
    1.1147    3.4307    0.0000 C   0  0  0  0  0  0  0  0  0  0  0  0
   -0.3771    3.5875    0.0000 N   0  0  0  0  0  0  0  0  0  0  0  0
   -0.5339    5.0793    0.0000 C   0  0  0  0  0  0  0  0  0  0  0  0
   -1.9042    5.6894    0.0000 O   0  0  0  0  0  0  0  0  0  0  0  0
    0.6797    5.9610    0.0000 N   0  0  0  0  0  0  0  0  0  0  0  0
    0.5229    7.4528    0.0000 C   0  0  0  0  0  0  0  0  0  0  0  0
    1.7364    8.3345    0.0000 C   0  0  0  0  0  0  0  0  0  0  0  0
   -1.8037    3.1240    0.0000 C   0  0  0  0  0  0  0  0  0  0  0  0
   -2.5537    4.4231    0.0000 C   0  0  0  0  0  0  0  0  0  0  0  0
   -2.9184    2.1203    0.0000 C   0  0  0  0  0  0  0  0  0  0  0  0
   -4.1319    3.0020    0.0000 O   0  0  0  0  0  0  0  0  0  0  0  0
   -3.5285    0.7500    0.0000 C   0  0  0  0  0  0  0  0  0  0  0  0
   -4.9192    0.1881    0.0000 C   0  0  0  0  0  0  0  0  0  0  0  0
   -4.5705    1.8290    0.0000 O   0  0  0  0  0  0  0  0  0  0  0  0
   -3.5285   -0.7500    0.0000 C   0  0  0  0  0  0  0  0  0  0  0  0
   -4.9957   -1.0619    0.0000 C   0  0  0  0  0  0  0  0  0  0  0  0
   -5.9994    0.0528    0.0000 C   0  0  0  0  0  0  0  0  0  0  0  0
   -2.9184   -2.1203    0.0000 O   0  0  0  0  0  0  0  0  0  0  0  0
   -1.8037   -3.1240    0.0000 C   0  0  0  0  0  0  0  0  0  0  0  0
   -2.5537   -4.4231    0.0000 O   0  0  0  0  0  0  0  0  0  0  0  0
   -0.3771   -3.5875    0.0000 C   0  0  0  0  0  0  0  0  0  0  0  0
   -0.8389   -4.8561    0.0000 C   0  0  0  0  0  0  0  0  0  0  0  0
    1.1147   -3.4307    0.0000 C   0  0  0  0  0  0  0  0  0  0  0  0
    1.5782   -4.8573    0.0000 O   0  0  0  0  0  0  0  0  0  0  0  0
    0.5745   -5.9720    0.0000 C   0  0  0  0  0  0  0  0  0  0  0  0
    1.0381   -7.3986    0.0000 C   0  0  0  0  0  0  0  0  0  0  0  0
    0.0344   -8.5134    0.0000 C   0  0  0  0  0  0  0  0  0  0  0  0
   -0.5275   -9.9041    0.0000 C   0  0  0  0  0  0  0  0  0  0  0  0
    1.3064   -9.3082    0.0000 O   0  0  0  0  0  0  0  0  0  0  0  0
    1.2541  -10.8073    0.0000 C   0  0  0  0  0  0  0  0  0  0  0  0
   -1.4328   -8.2015    0.0000 C   0  0  0  0  0  0  0  0  0  0  0  0
   -2.4365   -9.3162    0.0000 O   0  0  0  0  0  0  0  0  0  0  0  0
   -1.8964   -6.7749    0.0000 C   0  0  0  0  0  0  0  0  0  0  0  0
   -3.3636   -6.4630    0.0000 C   0  0  0  0  0  0  0  0  0  0  0  0
   -0.8927   -5.6602    0.0000 O   0  0  0  0  0  0  0  0  0  0  0  0
    2.4138   -2.6807    0.0000 C   0  0  0  0  0  0  0  0  0  0  0  0
    3.4175   -3.7955    0.0000 C   0  0  0  0  0  0  0  0  0  0  0  0
    3.2954   -1.4672    0.0000 C   0  0  0  0  0  0  0  0  0  0  0  0
    4.6658   -2.0773    0.0000 O   0  0  0  0  0  0  0  0  0  0  0  0
    5.8793   -1.1956    0.0000 C   0  0  0  0  0  0  0  0  0  0  0  0
    7.2496   -1.8058    0.0000 O   0  0  0  0  0  0  0  0  0  0  0  0
    8.4631   -0.9241    0.0000 C   0  0  0  0  0  0  0  0  0  0  0  0
    9.8334   -1.5342    0.0000 C   0  0  0  0  0  0  0  0  0  0  0  0
    8.3063    0.5677    0.0000 C   0  0  0  0  0  0  0  0  0  0  0  0
    6.9360    1.1778    0.0000 C   0  0  0  0  0  0  0  0  0  0  0  0
    6.7792    2.6696    0.0000 N   0  0  0  0  0  0  0  0  0  0  0  0
    7.9927    3.5513    0.0000 C   0  0  0  0  0  0  0  0  0  0  0  0
    5.4089    3.2797    0.0000 C   0  0  0  0  0  0  0  0  0  0  0  0
    5.7225    0.2961    0.0000 C   0  0  0  0  0  0  0  0  0  0  0  0
    4.4368    1.0687    0.0000 O   0  0  0  0  0  0  0  0  0  0  0  0
  1  2  2  0
  2  3  1  0
  3  4  1  0
  4  5  1  6
  4  6  1  0
  6  7  1  0
  7  8  1  6
  7  9  1  0
  9 10  1  0
 10 11  1  0
 11 12  2  0
 11 13  1  0
 13 14  1  0
 14 15  1  0
 10 16  1  0
 16 17  1  1
 16 18  1  0
 18 19  1  6
 18 20  1  0
 20 21  1  6
 20 22  1  0
 20 23  1  0
 23 24  1  6
 24 25  1  0
 23 26  1  0
 26 27  1  0
 27 28  2  0
 27 29  1  0
 29 30  1  1
 29 31  1  0
 31 32  1  6
 33 32  1  1
 33 34  1  0
 34 35  1  0
 35 36  1  6
 35 37  1  0
 37 38  1  0
 35 39  1  0
 39 40  1  1
 39 41  1  0
 41 42  1  6
 41 43  1  0
 31 44  1  0
 44 45  1  1
 44 46  1  0
 46 47  1  6
 48 47  1  1
 48 49  1  0
 49 50  1  0
 50 51  1  1
 50 52  1  0
 52 53  1  0
 53 54  1  1
 54 55  1  0
 54 56  1  0
 53 57  1  0
 57 58  1  6
 46  4  1  0
 57 48  1  0
 43 33  1  0
M  END
>  <ChEMBL_IDs>  (52) 
CHEMBL1774449

>  <target_organism>  (52) 
Homo sapiens,None,Escherichia coli K-12

>  <target_molecule_pref_name>  (52) 
None

>  <# Known Targets>  (52) 
1.0

>  <Known Targets>  (52) 
CHEMBL612888

>  <smiles>  (52) 
C=CO[C@]1(C)C[C@@H](C)CN(C(=O)NCC)[C@H](C)[C@@H](O)[C@](C)(O)[C@@H](CC)OC(=O)[C@H](C)[C@@H](O[C@H]2C[C@@](C)(OC)[C@@H](O)[C@H](C)O2)[C@H](C)[C@H]1O[C@@H]1O[C@H](C)C[C@H](N(C)C)[C@H]1O

$$$$

     RDKit          2D

 56 58  0  0  0  0  0  0  0  0999 V2000
    7.3573    1.2990    0.0000 C   0  0  0  0  0  0  0  0  0  0  0  0
    5.8573    1.2990    0.0000 C   0  0  0  0  0  0  0  0  0  0  0  0
    5.1073    0.0000    0.0000 C   0  0  0  0  0  0  0  0  0  0  0  0
    3.6073    0.0000    0.0000 N   0  0  0  0  0  0  0  0  0  0  0  0
    3.2954    1.4672    0.0000 C   0  0  0  0  0  0  0  0  0  0  0  0
    2.4138    2.6807    0.0000 C   0  0  0  0  0  0  0  0  0  0  0  0
    3.4175    3.7955    0.0000 C   0  0  0  0  0  0  0  0  0  0  0  0
    1.1147    3.4307    0.0000 C   0  0  0  0  0  0  0  0  0  0  0  0
   -0.3771    3.5875    0.0000 C   0  0  0  0  0  0  0  0  0  0  0  0
   -1.3412    4.7366    0.0000 C   0  0  0  0  0  0  0  0  0  0  0  0
    0.3271    4.9120    0.0000 O   0  0  0  0  0  0  0  0  0  0  0  0
    1.8262    4.9643    0.0000 C   0  0  0  0  0  0  0  0  0  0  0  0
    2.5304    6.2887    0.0000 C   0  0  0  0  0  0  0  0  0  0  0  0
   -1.8037    3.1240    0.0000 C   0  0  0  0  0  0  0  0  0  0  0  0
   -2.5537    4.4231    0.0000 O   0  0  0  0  0  0  0  0  0  0  0  0
   -1.8037    5.7221    0.0000 C   0  0  0  0  0  0  0  0  0  0  0  0
   -0.3037    5.7221    0.0000 O   0  0  0  0  0  0  0  0  0  0  0  0
    0.4463    7.0211    0.0000 C   0  0  0  0  0  0  0  0  0  0  0  0
    1.9463    7.0211    0.0000 C   0  0  0  0  0  0  0  0  0  0  0  0
   -0.3037    8.3202    0.0000 C   0  0  0  0  0  0  0  0  0  0  0  0
   -1.8037    8.3202    0.0000 C   0  0  0  0  0  0  0  0  0  0  0  0
   -2.5537    9.6192    0.0000 N   0  0  0  0  0  0  0  0  0  0  0  0
   -1.8037   10.9182    0.0000 C   0  0  0  0  0  0  0  0  0  0  0  0
   -4.0537    9.6192    0.0000 C   0  0  0  0  0  0  0  0  0  0  0  0
   -2.5537    7.0211    0.0000 C   0  0  0  0  0  0  0  0  0  0  0  0
   -4.0537    7.0211    0.0000 O   0  0  0  0  0  0  0  0  0  0  0  0
   -2.9184    2.1203    0.0000 C   0  0  0  0  0  0  0  0  0  0  0  0
   -4.1319    3.0020    0.0000 C   0  0  0  0  0  0  0  0  0  0  0  0
   -3.5285    0.7500    0.0000 C   0  0  0  0  0  0  0  0  0  0  0  0
   -4.9957    1.0619    0.0000 O   0  0  0  0  0  0  0  0  0  0  0  0
   -5.9994   -0.0528    0.0000 C   0  0  0  0  0  0  0  0  0  0  0  0
   -7.4666    0.2590    0.0000 C   0  0  0  0  0  0  0  0  0  0  0  0
   -8.4703   -0.8557    0.0000 C   0  0  0  0  0  0  0  0  0  0  0  0
   -9.7947   -1.5599    0.0000 C   0  0  0  0  0  0  0  0  0  0  0  0
   -9.3938    0.3263    0.0000 O   0  0  0  0  0  0  0  0  0  0  0  0
  -10.8792    0.1176    0.0000 C   0  0  0  0  0  0  0  0  0  0  0  0
   -8.0068   -2.2823    0.0000 C   0  0  0  0  0  0  0  0  0  0  0  0
   -9.0105   -3.3970    0.0000 O   0  0  0  0  0  0  0  0  0  0  0  0
   -6.5396   -2.5942    0.0000 C   0  0  0  0  0  0  0  0  0  0  0  0
   -6.0760   -4.0207    0.0000 C   0  0  0  0  0  0  0  0  0  0  0  0
   -5.5359   -1.4794    0.0000 O   0  0  0  0  0  0  0  0  0  0  0  0
   -3.5285   -0.7500    0.0000 C   0  0  0  0  0  0  0  0  0  0  0  0
   -4.7418   -1.3419    0.0000 C   0  0  0  0  0  0  0  0  0  0  0  0
   -2.9184   -2.1203    0.0000 C   0  0  0  0  0  0  0  0  0  0  0  0
   -4.1319   -3.0020    0.0000 O   0  0  0  0  0  0  0  0  0  0  0  0
   -1.8037   -3.1240    0.0000 O   0  0  0  0  0  0  0  0  0  0  0  0
   -0.3771   -3.5875    0.0000 C   0  0  0  0  0  0  0  0  0  0  0  0
   -0.5339   -5.0793    0.0000 C   0  0  0  0  0  0  0  0  0  0  0  0
   -1.9042   -5.6894    0.0000 C   0  0  0  0  0  0  0  0  0  0  0  0
    1.1147   -3.4307    0.0000 C   0  0  0  0  0  0  0  0  0  0  0  0
    2.2967   -4.3542    0.0000 C   0  0  0  0  0  0  0  0  0  0  0  0
    0.7013   -4.8726    0.0000 O   0  0  0  0  0  0  0  0  0  0  0  0
    2.4138   -2.6807    0.0000 C   0  0  0  0  0  0  0  0  0  0  0  0
    3.4175   -3.7955    0.0000 O   0  0  0  0  0  0  0  0  0  0  0  0
    3.2954   -1.4672    0.0000 C   0  0  0  0  0  0  0  0  0  0  0  0
    4.6658   -2.0773    0.0000 C   0  0  0  0  0  0  0  0  0  0  0  0
  1  2  2  0
  2  3  1  0
  3  4  1  0
  4  5  1  0
  5  6  1  0
  6  7  1  1
  6  8  1  0
  8  9  1  0
  9 10  1  1
  9 11  1  0
 11 12  1  0
 12 13  2  0
  9 14  1  0
 14 15  1  1
 16 15  1  1
 16 17  1  0
 17 18  1  0
 18 19  1  1
 18 20  1  0
 20 21  1  0
 21 22  1  1
 22 23  1  0
 22 24  1  0
 21 25  1  0
 25 26  1  6
 14 27  1  0
 27 28  1  6
 27 29  1  0
 29 30  1  1
 31 30  1  6
 31 32  1  0
 32 33  1  0
 33 34  1  1
 33 35  1  0
 35 36  1  0
 33 37  1  0
 37 38  1  6
 37 39  1  0
 39 40  1  1
 39 41  1  0
 29 42  1  0
 42 43  1  6
 42 44  1  0
 44 45  2  0
 44 46  1  0
 46 47  1  0
 47 48  1  1
 48 49  1  0
 47 50  1  0
 50 51  1  1
 50 52  1  0
 50 53  1  0
 53 54  1  1
 53 55  1  0
 55 56  1  6
 55  4  1  0
 25 16  1  0
 41 31  1  0
M  END
>  <ChEMBL_IDs>  (53) 
CHEMBL1774303

>  <target_organism>  (53) 
Homo sapiens,None,Escherichia coli K-12

>  <target_molecule_pref_name>  (53) 
None

>  <# Known Targets>  (53) 
1.0

>  <Known Targets>  (53) 
CHEMBL612888

>  <smiles>  (53) 
C=CCN1C[C@H](C)C[C@@](C)(OC=C)[C@H](O[C@@H]2O[C@H](C)C[C@H](N(C)C)[C@H]2O)[C@@H](C)[C@H](O[C@H]2C[C@@](C)(OC)[C@@H](O)[C@H](C)O2)[C@@H](C)C(=O)O[C@H](CC)[C@@](C)(O)[C@H](O)[C@H]1C

$$$$

     RDKit          2D

 58 60  0  0  0  0  0  0  0  0999 V2000
    6.0944    1.2990    0.0000 C   0  0  0  0  0  0  0  0  0  0  0  0
    5.3444   -0.0000    0.0000 O   0  0  0  0  0  0  0  0  0  0  0  0
    3.8444   -0.0000    0.0000 C   0  0  0  0  0  0  0  0  0  0  0  0
    3.5517   -1.4712    0.0000 C   0  0  0  0  0  0  0  0  0  0  0  0
    4.9376   -2.0452    0.0000 O   0  0  0  0  0  0  0  0  0  0  0  0
    6.1276   -1.1321    0.0000 C   0  0  0  0  0  0  0  0  0  0  0  0
    5.9318    0.3551    0.0000 O   0  0  0  0  0  0  0  0  0  0  0  0
    7.1218    1.2682    0.0000 C   0  0  0  0  0  0  0  0  0  0  0  0
    6.9260    2.7554    0.0000 C   0  0  0  0  0  0  0  0  0  0  0  0
    8.5076    0.6942    0.0000 C   0  0  0  0  0  0  0  0  0  0  0  0
    9.6977    1.6074    0.0000 O   0  0  0  0  0  0  0  0  0  0  0  0
    9.5019    3.0945    0.0000 C   0  0  0  0  0  0  0  0  0  0  0  0
   10.6919    4.0077    0.0000 C   0  0  0  0  0  0  0  0  0  0  0  0
   10.4961    5.4948    0.0000 C   0  0  0  0  0  0  0  0  0  0  0  0
   10.8208    6.9593    0.0000 C   0  0  0  0  0  0  0  0  0  0  0  0
   11.9947    5.4294    0.0000 O   0  0  0  0  0  0  0  0  0  0  0  0
    9.1103    6.0689    0.0000 C   0  0  0  0  0  0  0  0  0  0  0  0
    8.9145    7.5560    0.0000 O   0  0  0  0  0  0  0  0  0  0  0  0
    7.5287    8.1301    0.0000 C   0  0  0  0  0  0  0  0  0  0  0  0
    6.3387    7.2169    0.0000 O   0  0  0  0  0  0  0  0  0  0  0  0
    7.3329    9.6172    0.0000 C   0  0  0  0  0  0  0  0  0  0  0  0
    5.9471   10.1913    0.0000 C   0  0  0  0  0  0  0  0  0  0  0  0
    5.7513   11.6784    0.0000 C   0  0  0  0  0  0  0  0  0  0  0  0
    4.7571    9.2781    0.0000 C   0  0  0  0  0  0  0  0  0  0  0  0
    7.9203    5.1557    0.0000 C   0  0  0  0  0  0  0  0  0  0  0  0
    6.5345    5.7298    0.0000 C   0  0  0  0  0  0  0  0  0  0  0  0
    8.1161    3.6686    0.0000 O   0  0  0  0  0  0  0  0  0  0  0  0
    8.7034   -0.7929    0.0000 C   0  0  0  0  0  0  0  0  0  0  0  0
   10.0893   -1.3670    0.0000 N   0  0  0  0  0  0  0  0  0  0  0  0
   11.2793   -0.4538    0.0000 C   0  0  0  0  0  0  0  0  0  0  0  0
   10.2850   -2.8541    0.0000 C   0  0  0  0  0  0  0  0  0  0  0  0
    7.5134   -1.7061    0.0000 C   0  0  0  0  0  0  0  0  0  0  0  0
    7.7092   -3.1933    0.0000 O   0  0  0  0  0  0  0  0  0  0  0  0
    2.7184   -2.7184    0.0000 C   0  0  0  0  0  0  0  0  0  0  0  0
    3.7790   -3.7790    0.0000 C   0  0  0  0  0  0  0  0  0  0  0  0
    3.3908   -5.2279    0.0000 C   0  0  0  0  0  0  0  0  0  0  0  0
    4.4515   -6.2886    0.0000 O   0  0  0  0  0  0  0  0  0  0  0  0
    1.4712   -3.5517    0.0000 C   0  0  0  0  0  0  0  0  0  0  0  0
    0.0000   -3.8444    0.0000 C   0  0  0  0  0  0  0  0  0  0  0  0
    0.0000   -5.3444    0.0000 C   0  0  0  0  0  0  0  0  0  0  0  0
   -1.4712   -3.5517    0.0000 C   0  0  0  0  0  0  0  0  0  0  0  0
   -2.0452   -4.9376    0.0000 O   0  0  0  0  0  0  0  0  0  0  0  0
   -3.5324   -5.1333    0.0000 C   0  0  0  0  0  0  0  0  0  0  0  0
   -4.1064   -6.5192    0.0000 C   0  0  0  0  0  0  0  0  0  0  0  0
   -4.4455   -3.9433    0.0000 O   0  0  0  0  0  0  0  0  0  0  0  0
   -2.7184   -2.7184    0.0000 C   0  0  0  0  0  0  0  0  0  0  0  0
   -3.5517   -1.4712    0.0000 C   0  0  0  0  0  0  0  0  0  0  0  0
   -3.8444   -0.0000    0.0000 C   0  0  0  0  0  0  0  0  0  0  0  0
   -3.5517    1.4712    0.0000 C   0  0  0  0  0  0  0  0  0  0  0  0
   -2.7184    2.7184    0.0000 C   0  0  0  0  0  0  0  0  0  0  0  0
   -1.4712    3.5517    0.0000 C   0  0  0  0  0  0  0  0  0  0  0  0
   -2.0452    4.9376    0.0000 C   0  0  0  0  0  0  0  0  0  0  0  0
   -0.0000    3.8444    0.0000 O   0  0  0  0  0  0  0  0  0  0  0  0
    1.4712    3.5517    0.0000 C   0  0  0  0  0  0  0  0  0  0  0  0
    2.0452    4.9376    0.0000 O   0  0  0  0  0  0  0  0  0  0  0  0
    2.7184    2.7184    0.0000 C   0  0  0  0  0  0  0  0  0  0  0  0
    3.5517    1.4712    0.0000 C   0  0  0  0  0  0  0  0  0  0  0  0
    4.9376    2.0452    0.0000 O   0  0  0  0  0  0  0  0  0  0  0  0
  1  2  1  0
  3  2  1  6
  3  4  1  0
  4  5  1  1
  6  5  1  6
  6  7  1  0
  7  8  1  0
  8  9  1  6
  8 10  1  0
 10 11  1  1
 12 11  1  6
 12 13  1  0
 13 14  1  0
 14 15  1  1
 14 16  1  0
 14 17  1  0
 17 18  1  6
 18 19  1  0
 19 20  2  0
 19 21  1  0
 21 22  1  0
 22 23  1  0
 22 24  1  0
 17 25  1  0
 25 26  1  1
 25 27  1  0
 10 28  1  0
 28 29  1  6
 29 30  1  0
 29 31  1  0
 28 32  1  0
 32 33  1  1
  4 34  1  0
 34 35  1  1
 35 36  1  0
 36 37  2  0
 34 38  1  0
 38 39  1  0
 39 40  1  1
 39 41  1  0
 41 42  1  1
 42 43  1  0
 43 44  1  0
 43 45  2  0
 41 46  1  0
 46 47  2  0
 47 48  1  0
 48 49  2  0
 49 50  1  0
 50 51  1  0
 51 52  1  1
 51 53  1  0
 53 54  1  0
 54 55  2  0
 54 56  1  0
 56 57  1  0
 57 58  1  1
 57  3  1  0
 32  6  1  0
 27 12  1  0
M  END
>  <ChEMBL_IDs>  (54) 
CHEMBL3251869

>  <target_organism>  (54) 
Homo sapiens

>  <target_molecule_pref_name>  (54) 
None

>  <# Known Targets>  (54) 
1.0

>  <Known Targets>  (54) 
CHEMBL612545

>  <smiles>  (54) 
CO[C@@H]1[C@@H](O[C@@H]2O[C@H](C)[C@@H](O[C@H]3C[C@@](C)(O)[C@@H](OC(=O)CC(C)C)[C@H](C)O3)[C@H](N(C)C)[C@H]2O)[C@@H](CC=O)C[C@@H](C)[C@@H](OC(C)=O)/C=C/C=C/C[C@@H](C)OC(=O)C[C@H]1O

$$$$

     RDKit          2D

 61 63  0  0  0  0  0  0  0  0999 V2000
    5.8573   -1.2990    0.0000 C   0  0  0  0  0  0  0  0  0  0  0  0
    5.1073    0.0000    0.0000 C   0  0  0  0  0  0  0  0  0  0  0  0
    3.6073    0.0000    0.0000 C   0  0  0  0  0  0  0  0  0  0  0  0
    3.2954    1.4672    0.0000 O   0  0  0  0  0  0  0  0  0  0  0  0
    2.4138    2.6807    0.0000 C   0  0  0  0  0  0  0  0  0  0  0  0
    3.4175    3.7955    0.0000 O   0  0  0  0  0  0  0  0  0  0  0  0
    1.1147    3.4307    0.0000 C   0  0  0  0  0  0  0  0  0  0  0  0
    1.8302    4.5756    0.0000 C   0  0  0  0  0  0  0  0  0  0  0  0
   -0.3771    3.5875    0.0000 C   0  0  0  0  0  0  0  0  0  0  0  0
   -0.5339    5.0793    0.0000 O   0  0  0  0  0  0  0  0  0  0  0  0
    0.6797    5.9610    0.0000 C   0  0  0  0  0  0  0  0  0  0  0  0
    0.5229    7.4528    0.0000 C   0  0  0  0  0  0  0  0  0  0  0  0
    1.7364    8.3345    0.0000 C   0  0  0  0  0  0  0  0  0  0  0  0
    2.5752    9.5780    0.0000 C   0  0  0  0  0  0  0  0  0  0  0  0
    0.6574    9.3764    0.0000 O   0  0  0  0  0  0  0  0  0  0  0  0
    1.0203   10.8319    0.0000 C   0  0  0  0  0  0  0  0  0  0  0  0
    3.1067    7.7244    0.0000 C   0  0  0  0  0  0  0  0  0  0  0  0
    4.3202    8.6060    0.0000 O   0  0  0  0  0  0  0  0  0  0  0  0
    3.2635    6.2326    0.0000 C   0  0  0  0  0  0  0  0  0  0  0  0
    4.6338    5.6225    0.0000 C   0  0  0  0  0  0  0  0  0  0  0  0
    2.0500    5.3509    0.0000 O   0  0  0  0  0  0  0  0  0  0  0  0
   -1.8037    3.1240    0.0000 C   0  0  0  0  0  0  0  0  0  0  0  0
   -2.5537    4.4231    0.0000 C   0  0  0  0  0  0  0  0  0  0  0  0
   -2.9184    2.1203    0.0000 C   0  0  0  0  0  0  0  0  0  0  0  0
   -4.1319    3.0020    0.0000 O   0  0  0  0  0  0  0  0  0  0  0  0
   -5.5022    2.3919    0.0000 C   0  0  0  0  0  0  0  0  0  0  0  0
   -6.7157    3.2736    0.0000 O   0  0  0  0  0  0  0  0  0  0  0  0
   -8.0861    2.6635    0.0000 C   0  0  0  0  0  0  0  0  0  0  0  0
   -9.2996    3.5451    0.0000 C   0  0  0  0  0  0  0  0  0  0  0  0
   -8.2428    1.1717    0.0000 C   0  0  0  0  0  0  0  0  0  0  0  0
   -7.0293    0.2900    0.0000 C   0  0  0  0  0  0  0  0  0  0  0  0
   -7.1861   -1.2018    0.0000 N   0  0  0  0  0  0  0  0  0  0  0  0
   -8.5564   -1.8119    0.0000 C   0  0  0  0  0  0  0  0  0  0  0  0
   -5.9726   -2.0835    0.0000 C   0  0  0  0  0  0  0  0  0  0  0  0
   -5.6590    0.9001    0.0000 C   0  0  0  0  0  0  0  0  0  0  0  0
   -5.0760    0.3564    0.0000 O   0  0  0  0  0  0  0  0  0  0  0  0
   -3.5285    0.7500    0.0000 C   0  0  0  0  0  0  0  0  0  0  0  0
   -4.2257    0.3635    0.0000 C   0  0  0  0  0  0  0  0  0  0  0  0
   -4.5705    1.8290    0.0000 O   0  0  0  0  0  0  0  0  0  0  0  0
   -3.5285   -0.7500    0.0000 C   0  0  0  0  0  0  0  0  0  0  0  0
   -2.9184   -2.1203    0.0000 C   0  0  0  0  0  0  0  0  0  0  0  0
   -4.1319   -3.0020    0.0000 C   0  0  0  0  0  0  0  0  0  0  0  0
   -1.8037   -3.1240    0.0000 C   0  0  0  0  0  0  0  0  0  0  0  0
   -0.3771   -3.5875    0.0000 N   0  0  0  0  0  0  0  0  0  0  0  0
   -0.5339   -5.0793    0.0000 C   0  0  0  0  0  0  0  0  0  0  0  0
   -1.9042   -5.6894    0.0000 C   0  0  0  0  0  0  0  0  0  0  0  0
   -2.0610   -7.1812    0.0000 C   0  0  0  0  0  0  0  0  0  0  0  0
   -3.4313   -7.7913    0.0000 N   0  0  0  0  0  0  0  0  0  0  0  0
   -3.5881   -9.2831    0.0000 C   0  0  0  0  0  0  0  0  0  0  0  0
   -2.3746  -10.1648    0.0000 S   0  0  0  0  0  0  0  0  0  0  0  0
   -4.9584   -9.8932    0.0000 N   0  0  0  0  0  0  0  0  0  0  0  0
   -5.1152  -11.3850    0.0000 C   0  0  0  0  0  0  0  0  0  0  0  0
   -6.4855  -11.9951    0.0000 C   0  0  0  0  0  0  0  0  0  0  0  0
   -6.6423  -13.4869    0.0000 Cl  0  0  0  0  0  0  0  0  0  0  0  0
    1.1147   -3.4307    0.0000 C   0  0  0  0  0  0  0  0  0  0  0  0
    1.5782   -4.8573    0.0000 C   0  0  0  0  0  0  0  0  0  0  0  0
    2.4138   -2.6807    0.0000 C   0  0  0  0  0  0  0  0  0  0  0  0
    3.4175   -3.7955    0.0000 O   0  0  0  0  0  0  0  0  0  0  0  0
    3.2954   -1.4672    0.0000 C   0  0  0  0  0  0  0  0  0  0  0  0
    4.7726   -1.2067    0.0000 C   0  0  0  0  0  0  0  0  0  0  0  0
    4.0903   -2.7393    0.0000 O   0  0  0  0  0  0  0  0  0  0  0  0
  1  2  1  0
  3  2  1  6
  3  4  1  0
  4  5  1  0
  5  6  2  0
  5  7  1  0
  7  8  1  1
  7  9  1  0
  9 10  1  6
 11 10  1  1
 11 12  1  0
 12 13  1  0
 13 14  1  6
 13 15  1  0
 15 16  1  0
 13 17  1  0
 17 18  1  1
 17 19  1  0
 19 20  1  6
 19 21  1  0
  9 22  1  0
 22 23  1  1
 22 24  1  0
 24 25  1  6
 26 25  1  1
 26 27  1  0
 27 28  1  0
 28 29  1  1
 28 30  1  0
 30 31  1  0
 31 32  1  1
 32 33  1  0
 32 34  1  0
 31 35  1  0
 35 36  1  6
 24 37  1  0
 37 38  1  6
 37 39  1  0
 37 40  1  0
 40 41  1  0
 41 42  1  6
 41 43  1  0
 43 44  1  0
 44 45  1  0
 45 46  1  0
 46 47  1  0
 47 48  1  0
 48 49  1  0
 49 50  2  0
 49 51  1  0
 51 52  1  0
 52 53  1  0
 53 54  1  0
 44 55  1  0
 55 56  1  1
 55 57  1  0
 57 58  1  6
 57 59  1  0
 59 60  1  6
 59 61  1  0
 59  3  1  0
 21 11  1  0
 35 26  1  0
M  END
>  <ChEMBL_IDs>  (55) 
CHEMBL1682730

>  <target_organism>  (55) 
Homo sapiens,None,Escherichia coli K-12

>  <target_molecule_pref_name>  (55) 
None

>  <# Known Targets>  (55) 
1.0

>  <Known Targets>  (55) 
CHEMBL364

>  <smiles>  (55) 
CC[C@H]1OC(=O)[C@H](C)[C@@H](O[C@H]2C[C@@](C)(OC)[C@@H](O)[C@H](C)O2)[C@H](C)[C@@H](O[C@@H]2O[C@H](C)C[C@H](N(C)C)[C@H]2O)[C@](C)(O)C[C@@H](C)CN(CCCNC(=S)NCCCl)[C@H](C)[C@@H](O)[C@]1(C)O

$$$$

     RDKit          2D

 63 65  0  0  0  0  0  0  0  0999 V2000
    6.0944   -1.2990    0.0000 C   0  0  0  0  0  0  0  0  0  0  0  0
    5.3444    0.0000    0.0000 O   0  0  0  0  0  0  0  0  0  0  0  0
    3.8444    0.0000    0.0000 C   0  0  0  0  0  0  0  0  0  0  0  0
    3.5517   -1.4712    0.0000 C   0  0  0  0  0  0  0  0  0  0  0  0
    4.9376   -2.0452    0.0000 O   0  0  0  0  0  0  0  0  0  0  0  0
    5.1333   -3.5324    0.0000 C   0  0  0  0  0  0  0  0  0  0  0  0
    3.9433   -4.4455    0.0000 O   0  0  0  0  0  0  0  0  0  0  0  0
    4.1391   -5.9327    0.0000 C   0  0  0  0  0  0  0  0  0  0  0  0
    2.9491   -6.8458    0.0000 C   0  0  0  0  0  0  0  0  0  0  0  0
    5.5249   -6.5067    0.0000 C   0  0  0  0  0  0  0  0  0  0  0  0
    5.7207   -7.9939    0.0000 O   0  0  0  0  0  0  0  0  0  0  0  0
    4.5307   -8.9070    0.0000 C   0  0  0  0  0  0  0  0  0  0  0  0
    3.1449   -8.3330    0.0000 C   0  0  0  0  0  0  0  0  0  0  0  0
    1.9548   -9.2461    0.0000 C   0  0  0  0  0  0  0  0  0  0  0  0
    0.5243   -9.6972    0.0000 C   0  0  0  0  0  0  0  0  0  0  0  0
    1.2622   -7.9156    0.0000 O   0  0  0  0  0  0  0  0  0  0  0  0
    2.1506  -10.7333    0.0000 C   0  0  0  0  0  0  0  0  0  0  0  0
    0.9606  -11.6464    0.0000 O   0  0  0  0  0  0  0  0  0  0  0  0
    1.1564  -13.1336    0.0000 C   0  0  0  0  0  0  0  0  0  0  0  0
    2.5422  -13.7076    0.0000 O   0  0  0  0  0  0  0  0  0  0  0  0
   -0.0336  -14.0468    0.0000 C   0  0  0  0  0  0  0  0  0  0  0  0
    0.1621  -15.5339    0.0000 C   0  0  0  0  0  0  0  0  0  0  0  0
   -1.0279  -16.4471    0.0000 C   0  0  0  0  0  0  0  0  0  0  0  0
    1.5480  -16.1079    0.0000 C   0  0  0  0  0  0  0  0  0  0  0  0
    3.5364  -11.3073    0.0000 C   0  0  0  0  0  0  0  0  0  0  0  0
    3.7322  -12.7945    0.0000 C   0  0  0  0  0  0  0  0  0  0  0  0
    4.7265  -10.3942    0.0000 O   0  0  0  0  0  0  0  0  0  0  0  0
    6.7150   -5.5936    0.0000 C   0  0  0  0  0  0  0  0  0  0  0  0
    8.1008   -6.1676    0.0000 N   0  0  0  0  0  0  0  0  0  0  0  0
    8.2966   -7.6548    0.0000 C   0  0  0  0  0  0  0  0  0  0  0  0
    9.2908   -5.2544    0.0000 C   0  0  0  0  0  0  0  0  0  0  0  0
    6.5192   -4.1064    0.0000 C   0  0  0  0  0  0  0  0  0  0  0  0
    7.7092   -3.1933    0.0000 O   0  0  0  0  0  0  0  0  0  0  0  0
    2.7184   -2.7184    0.0000 C   0  0  0  0  0  0  0  0  0  0  0  0
    3.7790   -3.7790    0.0000 C   0  0  0  0  0  0  0  0  0  0  0  0
    3.3908   -5.2279    0.0000 C   0  0  0  0  0  0  0  0  0  0  0  0
    4.1633   -6.5137    0.0000 O   0  0  0  0  0  0  0  0  0  0  0  0
    1.4712   -3.5517    0.0000 C   0  0  0  0  0  0  0  0  0  0  0  0
   -0.0000   -3.8444    0.0000 C   0  0  0  0  0  0  0  0  0  0  0  0
   -0.0000   -5.3444    0.0000 C   0  0  0  0  0  0  0  0  0  0  0  0
   -1.4712   -3.5517    0.0000 C   0  0  0  0  0  0  0  0  0  0  0  0
   -2.0452   -4.9376    0.0000 O   0  0  0  0  0  0  0  0  0  0  0  0
   -3.5324   -5.1333    0.0000 C   0  0  0  0  0  0  0  0  0  0  0  0
   -4.4455   -3.9433    0.0000 O   0  0  0  0  0  0  0  0  0  0  0  0
   -4.1064   -6.5192    0.0000 C   0  0  0  0  0  0  0  0  0  0  0  0
   -5.5936   -6.7150    0.0000 Cl  0  0  0  0  0  0  0  0  0  0  0  0
   -3.1933   -7.7092    0.0000 Cl  0  0  0  0  0  0  0  0  0  0  0  0
   -2.7184   -2.7184    0.0000 C   0  0  0  0  0  0  0  0  0  0  0  0
   -3.5517   -1.4712    0.0000 C   0  0  0  0  0  0  0  0  0  0  0  0
   -3.8444    0.0000    0.0000 C   0  0  0  0  0  0  0  0  0  0  0  0
   -3.5517    1.4712    0.0000 C   0  0  0  0  0  0  0  0  0  0  0  0
   -2.7184    2.7184    0.0000 C   0  0  0  0  0  0  0  0  0  0  0  0
   -1.4712    3.5517    0.0000 C   0  0  0  0  0  0  0  0  0  0  0  0
   -2.0452    4.9376    0.0000 C   0  0  0  0  0  0  0  0  0  0  0  0
    0.0000    3.8444    0.0000 O   0  0  0  0  0  0  0  0  0  0  0  0
    1.4712    3.5517    0.0000 C   0  0  0  0  0  0  0  0  0  0  0  0
    2.0452    4.9376    0.0000 O   0  0  0  0  0  0  0  0  0  0  0  0
    2.7184    2.7184    0.0000 C   0  0  0  0  0  0  0  0  0  0  0  0
    3.5517    1.4712    0.0000 C   0  0  0  0  0  0  0  0  0  0  0  0
    4.9376    2.0452    0.0000 O   0  0  0  0  0  0  0  0  0  0  0  0
    6.1276    1.1321    0.0000 C   0  0  0  0  0  0  0  0  0  0  0  0
    7.5134    1.7061    0.0000 C   0  0  0  0  0  0  0  0  0  0  0  0
    6.2975   -0.3583    0.0000 O   0  0  0  0  0  0  0  0  0  0  0  0
  1  2  1  0
  3  2  1  6
  3  4  1  0
  4  5  1  1
  6  5  1  1
  6  7  1  0
  7  8  1  0
  8  9  1  1
  8 10  1  0
 10 11  1  6
 12 11  1  6
 12 13  1  0
 13 14  1  0
 14 15  1  1
 14 16  1  0
 14 17  1  0
 17 18  1  6
 18 19  1  0
 19 20  2  0
 19 21  1  0
 21 22  1  0
 22 23  1  0
 22 24  1  0
 17 25  1  0
 25 26  1  1
 25 27  1  0
 10 28  1  0
 28 29  1  1
 29 30  1  0
 29 31  1  0
 28 32  1  0
 32 33  1  6
  4 34  1  0
 34 35  1  1
 35 36  1  0
 36 37  2  0
 34 38  1  0
 38 39  1  0
 39 40  1  1
 39 41  1  0
 41 42  1  1
 42 43  1  0
 43 44  2  0
 43 45  1  0
 45 46  1  0
 45 47  1  0
 41 48  1  0
 48 49  2  0
 49 50  1  0
 50 51  2  0
 51 52  1  0
 52 53  1  0
 53 54  1  1
 53 55  1  0
 55 56  1  0
 56 57  2  0
 56 58  1  0
 58 59  1  0
 59 60  1  1
 60 61  1  0
 61 62  1  0
 61 63  2  0
 59  3  1  0
 32  6  1  0
 27 12  1  0
M  END
>  <ChEMBL_IDs>  (56) 
CHEMBL3244601

>  <target_organism>  (56) 
None

>  <target_molecule_pref_name>  (56) 
None

>  <# Known Targets>  (56) 
1.0

>  <Known Targets>  (56) 
CHEMBL612545

>  <smiles>  (56) 
CO[C@@H]1[C@@H](O[C@@H]2O[C@H](C)[C@@H](O[C@H]3C[C@@](C)(O)[C@@H](OC(=O)CC(C)C)[C@H](C)O3)[C@H](N(C)C)[C@H]2O)[C@@H](CC=O)C[C@@H](C)[C@@H](OC(=O)C(Cl)Cl)/C=C/C=C/C[C@@H](C)OC(=O)C[C@H]1OC(C)=O

$$$$

     RDKit          2D

 60 62  0  0  0  0  0  0  0  0999 V2000
    5.8573   -1.2990    0.0000 C   0  0  0  0  0  0  0  0  0  0  0  0
    5.1073    0.0000    0.0000 C   0  0  0  0  0  0  0  0  0  0  0  0
    3.6073    0.0000    0.0000 C   0  0  0  0  0  0  0  0  0  0  0  0
    3.2954    1.4672    0.0000 O   0  0  0  0  0  0  0  0  0  0  0  0
    2.4138    2.6807    0.0000 C   0  0  0  0  0  0  0  0  0  0  0  0
    3.4175    3.7955    0.0000 O   0  0  0  0  0  0  0  0  0  0  0  0
    1.1147    3.4307    0.0000 C   0  0  0  0  0  0  0  0  0  0  0  0
    1.8302    4.5756    0.0000 C   0  0  0  0  0  0  0  0  0  0  0  0
   -0.3771    3.5875    0.0000 C   0  0  0  0  0  0  0  0  0  0  0  0
   -0.5339    5.0793    0.0000 O   0  0  0  0  0  0  0  0  0  0  0  0
    0.6797    5.9610    0.0000 C   0  0  0  0  0  0  0  0  0  0  0  0
    0.5229    7.4528    0.0000 C   0  0  0  0  0  0  0  0  0  0  0  0
    1.7364    8.3345    0.0000 C   0  0  0  0  0  0  0  0  0  0  0  0
    2.5752    9.5780    0.0000 C   0  0  0  0  0  0  0  0  0  0  0  0
    0.6574    9.3764    0.0000 O   0  0  0  0  0  0  0  0  0  0  0  0
    1.0203   10.8319    0.0000 C   0  0  0  0  0  0  0  0  0  0  0  0
    3.1067    7.7244    0.0000 C   0  0  0  0  0  0  0  0  0  0  0  0
    4.3202    8.6060    0.0000 O   0  0  0  0  0  0  0  0  0  0  0  0
    3.2635    6.2326    0.0000 C   0  0  0  0  0  0  0  0  0  0  0  0
    4.6338    5.6225    0.0000 C   0  0  0  0  0  0  0  0  0  0  0  0
    2.0500    5.3509    0.0000 O   0  0  0  0  0  0  0  0  0  0  0  0
   -1.8037    3.1240    0.0000 C   0  0  0  0  0  0  0  0  0  0  0  0
   -2.5537    4.4231    0.0000 C   0  0  0  0  0  0  0  0  0  0  0  0
   -2.9184    2.1203    0.0000 C   0  0  0  0  0  0  0  0  0  0  0  0
   -4.1319    3.0020    0.0000 O   0  0  0  0  0  0  0  0  0  0  0  0
   -5.5022    2.3919    0.0000 C   0  0  0  0  0  0  0  0  0  0  0  0
   -6.7157    3.2736    0.0000 O   0  0  0  0  0  0  0  0  0  0  0  0
   -8.0861    2.6635    0.0000 C   0  0  0  0  0  0  0  0  0  0  0  0
   -9.2996    3.5451    0.0000 C   0  0  0  0  0  0  0  0  0  0  0  0
   -8.2428    1.1717    0.0000 C   0  0  0  0  0  0  0  0  0  0  0  0
   -7.0293    0.2900    0.0000 C   0  0  0  0  0  0  0  0  0  0  0  0
   -7.1861   -1.2018    0.0000 N   0  0  0  0  0  0  0  0  0  0  0  0
   -8.5564   -1.8119    0.0000 C   0  0  0  0  0  0  0  0  0  0  0  0
   -5.9726   -2.0835    0.0000 C   0  0  0  0  0  0  0  0  0  0  0  0
   -5.6590    0.9001    0.0000 C   0  0  0  0  0  0  0  0  0  0  0  0
   -5.0760    0.3564    0.0000 O   0  0  0  0  0  0  0  0  0  0  0  0
   -3.5285    0.7500    0.0000 C   0  0  0  0  0  0  0  0  0  0  0  0
   -4.2257    0.3635    0.0000 C   0  0  0  0  0  0  0  0  0  0  0  0
   -4.5705    1.8290    0.0000 O   0  0  0  0  0  0  0  0  0  0  0  0
   -3.5285   -0.7500    0.0000 C   0  0  0  0  0  0  0  0  0  0  0  0
   -2.9184   -2.1203    0.0000 C   0  0  0  0  0  0  0  0  0  0  0  0
   -4.1319   -3.0020    0.0000 C   0  0  0  0  0  0  0  0  0  0  0  0
   -1.8037   -3.1240    0.0000 C   0  0  0  0  0  0  0  0  0  0  0  0
   -0.3771   -3.5875    0.0000 N   0  0  0  0  0  0  0  0  0  0  0  0
   -0.5339   -5.0793    0.0000 C   0  0  0  0  0  0  0  0  0  0  0  0
   -1.9042   -5.6894    0.0000 C   0  0  0  0  0  0  0  0  0  0  0  0
   -2.0610   -7.1812    0.0000 N   0  0  0  0  0  0  0  0  0  0  0  0
   -3.4313   -7.7913    0.0000 C   0  0  0  0  0  0  0  0  0  0  0  0
   -4.6448   -6.9096    0.0000 O   0  0  0  0  0  0  0  0  0  0  0  0
   -3.5881   -9.2831    0.0000 N   0  0  0  0  0  0  0  0  0  0  0  0
   -4.9584   -9.8932    0.0000 C   0  0  0  0  0  0  0  0  0  0  0  0
   -5.1152  -11.3850    0.0000 C   0  0  0  0  0  0  0  0  0  0  0  0
   -6.1719   -9.0115    0.0000 C   0  0  0  0  0  0  0  0  0  0  0  0
    1.1147   -3.4307    0.0000 C   0  0  0  0  0  0  0  0  0  0  0  0
    1.5782   -4.8573    0.0000 C   0  0  0  0  0  0  0  0  0  0  0  0
    2.4138   -2.6807    0.0000 C   0  0  0  0  0  0  0  0  0  0  0  0
    3.4175   -3.7955    0.0000 O   0  0  0  0  0  0  0  0  0  0  0  0
    3.2954   -1.4672    0.0000 C   0  0  0  0  0  0  0  0  0  0  0  0
    4.7726   -1.2067    0.0000 C   0  0  0  0  0  0  0  0  0  0  0  0
    4.0903   -2.7393    0.0000 O   0  0  0  0  0  0  0  0  0  0  0  0
  1  2  1  0
  3  2  1  6
  3  4  1  0
  4  5  1  0
  5  6  2  0
  5  7  1  0
  7  8  1  1
  7  9  1  0
  9 10  1  6
 11 10  1  1
 11 12  1  0
 12 13  1  0
 13 14  1  6
 13 15  1  0
 15 16  1  0
 13 17  1  0
 17 18  1  1
 17 19  1  0
 19 20  1  6
 19 21  1  0
  9 22  1  0
 22 23  1  1
 22 24  1  0
 24 25  1  6
 26 25  1  1
 26 27  1  0
 27 28  1  0
 28 29  1  1
 28 30  1  0
 30 31  1  0
 31 32  1  1
 32 33  1  0
 32 34  1  0
 31 35  1  0
 35 36  1  6
 24 37  1  0
 37 38  1  6
 37 39  1  0
 37 40  1  0
 40 41  1  0
 41 42  1  6
 41 43  1  0
 43 44  1  0
 44 45  1  0
 45 46  1  0
 46 47  1  0
 47 48  1  0
 48 49  2  0
 48 50  1  0
 50 51  1  0
 51 52  1  0
 51 53  1  0
 44 54  1  0
 54 55  1  1
 54 56  1  0
 56 57  1  6
 56 58  1  0
 58 59  1  6
 58 60  1  0
 58  3  1  0
 21 11  1  0
 35 26  1  0
M  END
>  <ChEMBL_IDs>  (57) 
CHEMBL1774623

>  <target_organism>  (57) 
Homo sapiens,None,Escherichia coli K-12

>  <target_molecule_pref_name>  (57) 
None

>  <# Known Targets>  (57) 
1.0

>  <Known Targets>  (57) 
CHEMBL364

>  <smiles>  (57) 
CC[C@H]1OC(=O)[C@H](C)[C@@H](O[C@H]2C[C@@](C)(OC)[C@@H](O)[C@H](C)O2)[C@H](C)[C@@H](O[C@@H]2O[C@H](C)C[C@H](N(C)C)[C@H]2O)[C@](C)(O)C[C@@H](C)CN(CCNC(=O)NC(C)C)[C@H](C)[C@@H](O)[C@]1(C)O

$$$$

     RDKit          2D

 61 63  0  0  0  0  0  0  0  0999 V2000
    5.8573   -1.2990    0.0000 C   0  0  0  0  0  0  0  0  0  0  0  0
    5.1073    0.0000    0.0000 C   0  0  0  0  0  0  0  0  0  0  0  0
    3.6073    0.0000    0.0000 C   0  0  0  0  0  0  0  0  0  0  0  0
    3.2954    1.4672    0.0000 O   0  0  0  0  0  0  0  0  0  0  0  0
    2.4138    2.6807    0.0000 C   0  0  0  0  0  0  0  0  0  0  0  0
    3.4175    3.7955    0.0000 O   0  0  0  0  0  0  0  0  0  0  0  0
    1.1147    3.4307    0.0000 C   0  0  0  0  0  0  0  0  0  0  0  0
    1.8302    4.5756    0.0000 C   0  0  0  0  0  0  0  0  0  0  0  0
   -0.3771    3.5875    0.0000 C   0  0  0  0  0  0  0  0  0  0  0  0
   -0.5339    5.0793    0.0000 O   0  0  0  0  0  0  0  0  0  0  0  0
    0.6797    5.9610    0.0000 C   0  0  0  0  0  0  0  0  0  0  0  0
    0.5229    7.4528    0.0000 C   0  0  0  0  0  0  0  0  0  0  0  0
    1.7364    8.3345    0.0000 C   0  0  0  0  0  0  0  0  0  0  0  0
    2.5752    9.5780    0.0000 C   0  0  0  0  0  0  0  0  0  0  0  0
    0.6574    9.3764    0.0000 O   0  0  0  0  0  0  0  0  0  0  0  0
    1.0203   10.8319    0.0000 C   0  0  0  0  0  0  0  0  0  0  0  0
    3.1067    7.7244    0.0000 C   0  0  0  0  0  0  0  0  0  0  0  0
    4.3202    8.6060    0.0000 O   0  0  0  0  0  0  0  0  0  0  0  0
    3.2635    6.2326    0.0000 C   0  0  0  0  0  0  0  0  0  0  0  0
    4.6338    5.6225    0.0000 C   0  0  0  0  0  0  0  0  0  0  0  0
    2.0500    5.3509    0.0000 O   0  0  0  0  0  0  0  0  0  0  0  0
   -1.8037    3.1240    0.0000 C   0  0  0  0  0  0  0  0  0  0  0  0
   -2.5537    4.4231    0.0000 C   0  0  0  0  0  0  0  0  0  0  0  0
   -2.9184    2.1203    0.0000 C   0  0  0  0  0  0  0  0  0  0  0  0
   -4.1319    3.0020    0.0000 O   0  0  0  0  0  0  0  0  0  0  0  0
   -5.5022    2.3919    0.0000 C   0  0  0  0  0  0  0  0  0  0  0  0
   -6.7157    3.2736    0.0000 O   0  0  0  0  0  0  0  0  0  0  0  0
   -8.0861    2.6635    0.0000 C   0  0  0  0  0  0  0  0  0  0  0  0
   -9.2996    3.5451    0.0000 C   0  0  0  0  0  0  0  0  0  0  0  0
   -8.2428    1.1717    0.0000 C   0  0  0  0  0  0  0  0  0  0  0  0
   -7.0293    0.2900    0.0000 C   0  0  0  0  0  0  0  0  0  0  0  0
   -7.1861   -1.2018    0.0000 N   0  0  0  0  0  0  0  0  0  0  0  0
   -8.5564   -1.8119    0.0000 C   0  0  0  0  0  0  0  0  0  0  0  0
   -5.9726   -2.0835    0.0000 C   0  0  0  0  0  0  0  0  0  0  0  0
   -5.6590    0.9001    0.0000 C   0  0  0  0  0  0  0  0  0  0  0  0
   -5.0760    0.3564    0.0000 O   0  0  0  0  0  0  0  0  0  0  0  0
   -3.5285    0.7500    0.0000 C   0  0  0  0  0  0  0  0  0  0  0  0
   -4.2257    0.3635    0.0000 C   0  0  0  0  0  0  0  0  0  0  0  0
   -4.5705    1.8290    0.0000 O   0  0  0  0  0  0  0  0  0  0  0  0
   -3.5285   -0.7500    0.0000 C   0  0  0  0  0  0  0  0  0  0  0  0
   -2.9184   -2.1203    0.0000 C   0  0  0  0  0  0  0  0  0  0  0  0
   -4.1319   -3.0020    0.0000 C   0  0  0  0  0  0  0  0  0  0  0  0
   -1.8037   -3.1240    0.0000 C   0  0  0  0  0  0  0  0  0  0  0  0
   -0.3771   -3.5875    0.0000 N   0  0  0  0  0  0  0  0  0  0  0  0
   -0.5339   -5.0793    0.0000 C   0  0  0  0  0  0  0  0  0  0  0  0
   -1.9042   -5.6894    0.0000 C   0  0  0  0  0  0  0  0  0  0  0  0
   -2.0610   -7.1812    0.0000 C   0  0  0  0  0  0  0  0  0  0  0  0
   -3.4313   -7.7913    0.0000 N   0  0  0  0  0  0  0  0  0  0  0  0
   -3.5881   -9.2831    0.0000 C   0  0  0  0  0  0  0  0  0  0  0  0
   -2.3746  -10.1648    0.0000 S   0  0  0  0  0  0  0  0  0  0  0  0
   -4.9584   -9.8932    0.0000 N   0  0  0  0  0  0  0  0  0  0  0  0
   -5.1152  -11.3850    0.0000 C   0  0  0  0  0  0  0  0  0  0  0  0
   -6.4855  -11.9951    0.0000 C   0  0  0  0  0  0  0  0  0  0  0  0
   -3.9017  -12.2667    0.0000 C   0  0  0  0  0  0  0  0  0  0  0  0
    1.1147   -3.4307    0.0000 C   0  0  0  0  0  0  0  0  0  0  0  0
    1.5782   -4.8573    0.0000 C   0  0  0  0  0  0  0  0  0  0  0  0
    2.4138   -2.6807    0.0000 C   0  0  0  0  0  0  0  0  0  0  0  0
    3.4175   -3.7955    0.0000 O   0  0  0  0  0  0  0  0  0  0  0  0
    3.2954   -1.4672    0.0000 C   0  0  0  0  0  0  0  0  0  0  0  0
    4.7726   -1.2067    0.0000 C   0  0  0  0  0  0  0  0  0  0  0  0
    4.0903   -2.7393    0.0000 O   0  0  0  0  0  0  0  0  0  0  0  0
  1  2  1  0
  3  2  1  6
  3  4  1  0
  4  5  1  0
  5  6  2  0
  5  7  1  0
  7  8  1  1
  7  9  1  0
  9 10  1  6
 11 10  1  1
 11 12  1  0
 12 13  1  0
 13 14  1  6
 13 15  1  0
 15 16  1  0
 13 17  1  0
 17 18  1  1
 17 19  1  0
 19 20  1  6
 19 21  1  0
  9 22  1  0
 22 23  1  1
 22 24  1  0
 24 25  1  6
 26 25  1  1
 26 27  1  0
 27 28  1  0
 28 29  1  1
 28 30  1  0
 30 31  1  0
 31 32  1  1
 32 33  1  0
 32 34  1  0
 31 35  1  0
 35 36  1  6
 24 37  1  0
 37 38  1  6
 37 39  1  0
 37 40  1  0
 40 41  1  0
 41 42  1  6
 41 43  1  0
 43 44  1  0
 44 45  1  0
 45 46  1  0
 46 47  1  0
 47 48  1  0
 48 49  1  0
 49 50  2  0
 49 51  1  0
 51 52  1  0
 52 53  1  0
 52 54  1  0
 44 55  1  0
 55 56  1  1
 55 57  1  0
 57 58  1  6
 57 59  1  0
 59 60  1  6
 59 61  1  0
 59  3  1  0
 21 11  1  0
 35 26  1  0
M  END
>  <ChEMBL_IDs>  (58) 
CHEMBL1682707

>  <target_organism>  (58) 
Homo sapiens,None,Escherichia coli K-12

>  <target_molecule_pref_name>  (58) 
None

>  <# Known Targets>  (58) 
1.0

>  <Known Targets>  (58) 
CHEMBL364

>  <smiles>  (58) 
CC[C@H]1OC(=O)[C@H](C)[C@@H](O[C@H]2C[C@@](C)(OC)[C@@H](O)[C@H](C)O2)[C@H](C)[C@@H](O[C@@H]2O[C@H](C)C[C@H](N(C)C)[C@H]2O)[C@](C)(O)C[C@@H](C)CN(CCCNC(=S)NC(C)C)[C@H](C)[C@@H](O)[C@]1(C)O

$$$$

     RDKit          2D

 62 64  0  0  0  0  0  0  0  0999 V2000
   14.1073    2.5981    0.0000 C   0  0  0  0  0  0  0  0  0  0  0  0
   12.6073    2.5981    0.0000 C   0  0  0  0  0  0  0  0  0  0  0  0
   11.8573    3.8971    0.0000 C   0  0  0  0  0  0  0  0  0  0  0  0
   12.6073    5.1962    0.0000 C   0  0  0  0  0  0  0  0  0  0  0  0
   10.3573    3.8971    0.0000 N   0  0  0  0  0  0  0  0  0  0  0  0
    9.6073    2.5981    0.0000 C   0  0  0  0  0  0  0  0  0  0  0  0
   10.3573    1.2990    0.0000 O   0  0  0  0  0  0  0  0  0  0  0  0
    8.1073    2.5981    0.0000 N   0  0  0  0  0  0  0  0  0  0  0  0
    7.3573    1.2990    0.0000 C   0  0  0  0  0  0  0  0  0  0  0  0
    5.8573    1.2990    0.0000 C   0  0  0  0  0  0  0  0  0  0  0  0
    5.1073    0.0000    0.0000 C   0  0  0  0  0  0  0  0  0  0  0  0
    3.6073    0.0000    0.0000 N   0  0  0  0  0  0  0  0  0  0  0  0
    3.2954    1.4672    0.0000 C   0  0  0  0  0  0  0  0  0  0  0  0
    2.4138    2.6807    0.0000 C   0  0  0  0  0  0  0  0  0  0  0  0
    3.4175    3.7955    0.0000 C   0  0  0  0  0  0  0  0  0  0  0  0
    1.1147    3.4307    0.0000 C   0  0  0  0  0  0  0  0  0  0  0  0
   -0.3771    3.5875    0.0000 C   0  0  0  0  0  0  0  0  0  0  0  0
   -1.3412    4.7366    0.0000 C   0  0  0  0  0  0  0  0  0  0  0  0
    0.3271    4.9120    0.0000 O   0  0  0  0  0  0  0  0  0  0  0  0
   -1.8037    3.1240    0.0000 C   0  0  0  0  0  0  0  0  0  0  0  0
   -2.5537    4.4231    0.0000 O   0  0  0  0  0  0  0  0  0  0  0  0
   -1.8037    5.7221    0.0000 C   0  0  0  0  0  0  0  0  0  0  0  0
   -0.3037    5.7221    0.0000 O   0  0  0  0  0  0  0  0  0  0  0  0
    0.4463    7.0211    0.0000 C   0  0  0  0  0  0  0  0  0  0  0  0
    1.9463    7.0211    0.0000 C   0  0  0  0  0  0  0  0  0  0  0  0
   -0.3037    8.3202    0.0000 C   0  0  0  0  0  0  0  0  0  0  0  0
   -1.8037    8.3202    0.0000 C   0  0  0  0  0  0  0  0  0  0  0  0
   -2.5537    9.6192    0.0000 N   0  0  0  0  0  0  0  0  0  0  0  0
   -1.8037   10.9182    0.0000 C   0  0  0  0  0  0  0  0  0  0  0  0
   -4.0537    9.6192    0.0000 C   0  0  0  0  0  0  0  0  0  0  0  0
   -2.5537    7.0211    0.0000 C   0  0  0  0  0  0  0  0  0  0  0  0
   -4.0537    7.0211    0.0000 O   0  0  0  0  0  0  0  0  0  0  0  0
   -2.9184    2.1203    0.0000 C   0  0  0  0  0  0  0  0  0  0  0  0
   -4.1319    3.0020    0.0000 C   0  0  0  0  0  0  0  0  0  0  0  0
   -3.5285    0.7500    0.0000 C   0  0  0  0  0  0  0  0  0  0  0  0
   -4.9957    1.0619    0.0000 O   0  0  0  0  0  0  0  0  0  0  0  0
   -5.9994   -0.0528    0.0000 C   0  0  0  0  0  0  0  0  0  0  0  0
   -7.4666    0.2590    0.0000 C   0  0  0  0  0  0  0  0  0  0  0  0
   -8.4703   -0.8557    0.0000 C   0  0  0  0  0  0  0  0  0  0  0  0
   -9.7947   -1.5599    0.0000 C   0  0  0  0  0  0  0  0  0  0  0  0
   -9.3938    0.3263    0.0000 O   0  0  0  0  0  0  0  0  0  0  0  0
  -10.8792    0.1176    0.0000 C   0  0  0  0  0  0  0  0  0  0  0  0
   -8.0068   -2.2823    0.0000 C   0  0  0  0  0  0  0  0  0  0  0  0
   -9.0105   -3.3970    0.0000 O   0  0  0  0  0  0  0  0  0  0  0  0
   -6.5396   -2.5942    0.0000 C   0  0  0  0  0  0  0  0  0  0  0  0
   -6.0760   -4.0207    0.0000 C   0  0  0  0  0  0  0  0  0  0  0  0
   -5.5359   -1.4794    0.0000 O   0  0  0  0  0  0  0  0  0  0  0  0
   -3.5285   -0.7500    0.0000 C   0  0  0  0  0  0  0  0  0  0  0  0
   -4.7418   -1.3419    0.0000 C   0  0  0  0  0  0  0  0  0  0  0  0
   -2.9184   -2.1203    0.0000 C   0  0  0  0  0  0  0  0  0  0  0  0
   -4.1319   -3.0020    0.0000 O   0  0  0  0  0  0  0  0  0  0  0  0
   -1.8037   -3.1240    0.0000 O   0  0  0  0  0  0  0  0  0  0  0  0
   -0.3771   -3.5875    0.0000 C   0  0  0  0  0  0  0  0  0  0  0  0
   -0.5339   -5.0793    0.0000 C   0  0  0  0  0  0  0  0  0  0  0  0
   -1.9042   -5.6894    0.0000 C   0  0  0  0  0  0  0  0  0  0  0  0
    1.1147   -3.4307    0.0000 C   0  0  0  0  0  0  0  0  0  0  0  0
    2.2967   -4.3542    0.0000 C   0  0  0  0  0  0  0  0  0  0  0  0
    0.7013   -4.8726    0.0000 O   0  0  0  0  0  0  0  0  0  0  0  0
    2.4138   -2.6807    0.0000 C   0  0  0  0  0  0  0  0  0  0  0  0
    3.4175   -3.7955    0.0000 O   0  0  0  0  0  0  0  0  0  0  0  0
    3.2954   -1.4672    0.0000 C   0  0  0  0  0  0  0  0  0  0  0  0
    4.6658   -2.0773    0.0000 C   0  0  0  0  0  0  0  0  0  0  0  0
  1  2  1  0
  2  3  1  0
  3  4  1  0
  3  5  1  0
  5  6  1  0
  6  7  2  0
  6  8  1  0
  8  9  1  0
  9 10  1  0
 10 11  1  0
 11 12  1  0
 12 13  1  0
 13 14  1  0
 14 15  1  1
 14 16  1  0
 16 17  1  0
 17 18  1  1
 17 19  1  0
 17 20  1  0
 20 21  1  1
 22 21  1  1
 22 23  1  0
 23 24  1  0
 24 25  1  1
 24 26  1  0
 26 27  1  0
 27 28  1  1
 28 29  1  0
 28 30  1  0
 27 31  1  0
 31 32  1  6
 20 33  1  0
 33 34  1  6
 33 35  1  0
 35 36  1  1
 37 36  1  6
 37 38  1  0
 38 39  1  0
 39 40  1  1
 39 41  1  0
 41 42  1  0
 39 43  1  0
 43 44  1  6
 43 45  1  0
 45 46  1  1
 45 47  1  0
 35 48  1  0
 48 49  1  6
 48 50  1  0
 50 51  2  0
 50 52  1  0
 52 53  1  0
 53 54  1  1
 54 55  1  0
 53 56  1  0
 56 57  1  1
 56 58  1  0
 56 59  1  0
 59 60  1  1
 59 61  1  0
 61 62  1  6
 61 12  1  0
 31 22  1  0
 47 37  1  0
M  END
>  <ChEMBL_IDs>  (59) 
CHEMBL1682722

>  <target_organism>  (59) 
Homo sapiens,None,Escherichia coli K-12

>  <target_molecule_pref_name>  (59) 
None

>  <# Known Targets>  (59) 
1.0

>  <Known Targets>  (59) 
CHEMBL364

>  <smiles>  (59) 
CCC(C)NC(=O)NCCCN1C[C@H](C)C[C@@](C)(O)[C@H](O[C@@H]2O[C@H](C)C[C@H](N(C)C)[C@H]2O)[C@@H](C)[C@H](O[C@H]2C[C@@](C)(OC)[C@@H](O)[C@H](C)O2)[C@@H](C)C(=O)O[C@H](CC)[C@@](C)(O)[C@H](O)[C@H]1C

$$$$

     RDKit          2D

 62 64  0  0  0  0  0  0  0  0999 V2000
   14.8573    6.4952    0.0000 C   0  0  0  0  0  0  0  0  0  0  0  0
   14.1073    5.1962    0.0000 C   0  0  0  0  0  0  0  0  0  0  0  0
   12.6073    5.1962    0.0000 C   0  0  0  0  0  0  0  0  0  0  0  0
   11.8573    3.8971    0.0000 C   0  0  0  0  0  0  0  0  0  0  0  0
   10.3573    3.8971    0.0000 N   0  0  0  0  0  0  0  0  0  0  0  0
    9.6073    2.5981    0.0000 C   0  0  0  0  0  0  0  0  0  0  0  0
   10.3573    1.2990    0.0000 O   0  0  0  0  0  0  0  0  0  0  0  0
    8.1073    2.5981    0.0000 N   0  0  0  0  0  0  0  0  0  0  0  0
    7.3573    1.2990    0.0000 C   0  0  0  0  0  0  0  0  0  0  0  0
    5.8573    1.2990    0.0000 C   0  0  0  0  0  0  0  0  0  0  0  0
    5.1073    0.0000    0.0000 C   0  0  0  0  0  0  0  0  0  0  0  0
    3.6073    0.0000    0.0000 N   0  0  0  0  0  0  0  0  0  0  0  0
    3.2954    1.4672    0.0000 C   0  0  0  0  0  0  0  0  0  0  0  0
    2.4138    2.6807    0.0000 C   0  0  0  0  0  0  0  0  0  0  0  0
    3.4175    3.7955    0.0000 C   0  0  0  0  0  0  0  0  0  0  0  0
    1.1147    3.4307    0.0000 C   0  0  0  0  0  0  0  0  0  0  0  0
   -0.3771    3.5875    0.0000 C   0  0  0  0  0  0  0  0  0  0  0  0
   -1.3412    4.7366    0.0000 C   0  0  0  0  0  0  0  0  0  0  0  0
    0.3271    4.9120    0.0000 O   0  0  0  0  0  0  0  0  0  0  0  0
   -1.8037    3.1240    0.0000 C   0  0  0  0  0  0  0  0  0  0  0  0
   -2.5537    4.4231    0.0000 O   0  0  0  0  0  0  0  0  0  0  0  0
   -1.8037    5.7221    0.0000 C   0  0  0  0  0  0  0  0  0  0  0  0
   -0.3037    5.7221    0.0000 O   0  0  0  0  0  0  0  0  0  0  0  0
    0.4463    7.0211    0.0000 C   0  0  0  0  0  0  0  0  0  0  0  0
    1.9463    7.0211    0.0000 C   0  0  0  0  0  0  0  0  0  0  0  0
   -0.3037    8.3202    0.0000 C   0  0  0  0  0  0  0  0  0  0  0  0
   -1.8037    8.3202    0.0000 C   0  0  0  0  0  0  0  0  0  0  0  0
   -2.5537    9.6192    0.0000 N   0  0  0  0  0  0  0  0  0  0  0  0
   -1.8037   10.9182    0.0000 C   0  0  0  0  0  0  0  0  0  0  0  0
   -4.0537    9.6192    0.0000 C   0  0  0  0  0  0  0  0  0  0  0  0
   -2.5537    7.0211    0.0000 C   0  0  0  0  0  0  0  0  0  0  0  0
   -4.0537    7.0211    0.0000 O   0  0  0  0  0  0  0  0  0  0  0  0
   -2.9184    2.1203    0.0000 C   0  0  0  0  0  0  0  0  0  0  0  0
   -4.1319    3.0020    0.0000 C   0  0  0  0  0  0  0  0  0  0  0  0
   -3.5285    0.7500    0.0000 C   0  0  0  0  0  0  0  0  0  0  0  0
   -4.9957    1.0619    0.0000 O   0  0  0  0  0  0  0  0  0  0  0  0
   -5.9994   -0.0528    0.0000 C   0  0  0  0  0  0  0  0  0  0  0  0
   -7.4666    0.2590    0.0000 C   0  0  0  0  0  0  0  0  0  0  0  0
   -8.4703   -0.8557    0.0000 C   0  0  0  0  0  0  0  0  0  0  0  0
   -9.7947   -1.5599    0.0000 C   0  0  0  0  0  0  0  0  0  0  0  0
   -9.3938    0.3263    0.0000 O   0  0  0  0  0  0  0  0  0  0  0  0
  -10.8792    0.1176    0.0000 C   0  0  0  0  0  0  0  0  0  0  0  0
   -8.0068   -2.2823    0.0000 C   0  0  0  0  0  0  0  0  0  0  0  0
   -9.0105   -3.3970    0.0000 O   0  0  0  0  0  0  0  0  0  0  0  0
   -6.5396   -2.5942    0.0000 C   0  0  0  0  0  0  0  0  0  0  0  0
   -6.0760   -4.0207    0.0000 C   0  0  0  0  0  0  0  0  0  0  0  0
   -5.5359   -1.4794    0.0000 O   0  0  0  0  0  0  0  0  0  0  0  0
   -3.5285   -0.7500    0.0000 C   0  0  0  0  0  0  0  0  0  0  0  0
   -4.7418   -1.3419    0.0000 C   0  0  0  0  0  0  0  0  0  0  0  0
   -2.9184   -2.1203    0.0000 C   0  0  0  0  0  0  0  0  0  0  0  0
   -4.1319   -3.0020    0.0000 O   0  0  0  0  0  0  0  0  0  0  0  0
   -1.8037   -3.1240    0.0000 O   0  0  0  0  0  0  0  0  0  0  0  0
   -0.3771   -3.5875    0.0000 C   0  0  0  0  0  0  0  0  0  0  0  0
   -0.5339   -5.0793    0.0000 C   0  0  0  0  0  0  0  0  0  0  0  0
   -1.9042   -5.6894    0.0000 C   0  0  0  0  0  0  0  0  0  0  0  0
    1.1147   -3.4307    0.0000 C   0  0  0  0  0  0  0  0  0  0  0  0
    2.2967   -4.3542    0.0000 C   0  0  0  0  0  0  0  0  0  0  0  0
    0.7013   -4.8726    0.0000 O   0  0  0  0  0  0  0  0  0  0  0  0
    2.4138   -2.6807    0.0000 C   0  0  0  0  0  0  0  0  0  0  0  0
    3.4175   -3.7955    0.0000 O   0  0  0  0  0  0  0  0  0  0  0  0
    3.2954   -1.4672    0.0000 C   0  0  0  0  0  0  0  0  0  0  0  0
    4.6658   -2.0773    0.0000 C   0  0  0  0  0  0  0  0  0  0  0  0
  1  2  1  0
  2  3  1  0
  3  4  1  0
  4  5  1  0
  5  6  1  0
  6  7  2  0
  6  8  1  0
  8  9  1  0
  9 10  1  0
 10 11  1  0
 11 12  1  0
 12 13  1  0
 13 14  1  0
 14 15  1  1
 14 16  1  0
 16 17  1  0
 17 18  1  1
 17 19  1  0
 17 20  1  0
 20 21  1  1
 22 21  1  1
 22 23  1  0
 23 24  1  0
 24 25  1  1
 24 26  1  0
 26 27  1  0
 27 28  1  1
 28 29  1  0
 28 30  1  0
 27 31  1  0
 31 32  1  6
 20 33  1  0
 33 34  1  6
 33 35  1  0
 35 36  1  1
 37 36  1  6
 37 38  1  0
 38 39  1  0
 39 40  1  1
 39 41  1  0
 41 42  1  0
 39 43  1  0
 43 44  1  6
 43 45  1  0
 45 46  1  1
 45 47  1  0
 35 48  1  0
 48 49  1  6
 48 50  1  0
 50 51  2  0
 50 52  1  0
 52 53  1  0
 53 54  1  1
 54 55  1  0
 53 56  1  0
 56 57  1  1
 56 58  1  0
 56 59  1  0
 59 60  1  1
 59 61  1  0
 61 62  1  6
 61 12  1  0
 31 22  1  0
 47 37  1  0
M  END
>  <ChEMBL_IDs>  (60) 
CHEMBL1682719

>  <target_organism>  (60) 
Homo sapiens,None,Escherichia coli K-12

>  <target_molecule_pref_name>  (60) 
None

>  <# Known Targets>  (60) 
1.0

>  <Known Targets>  (60) 
CHEMBL364

>  <smiles>  (60) 
CCCCNC(=O)NCCCN1C[C@H](C)C[C@@](C)(O)[C@H](O[C@@H]2O[C@H](C)C[C@H](N(C)C)[C@H]2O)[C@@H](C)[C@H](O[C@H]2C[C@@](C)(OC)[C@@H](O)[C@H](C)O2)[C@@H](C)C(=O)O[C@H](CC)[C@@](C)(O)[C@H](O)[C@H]1C

$$$$

     RDKit          2D

 63 65  0  0  0  0  0  0  0  0999 V2000
    5.8573   -1.2990    0.0000 C   0  0  0  0  0  0  0  0  0  0  0  0
    5.1073    0.0000    0.0000 C   0  0  0  0  0  0  0  0  0  0  0  0
    3.6073    0.0000    0.0000 C   0  0  0  0  0  0  0  0  0  0  0  0
    3.2954    1.4672    0.0000 O   0  0  0  0  0  0  0  0  0  0  0  0
    2.4138    2.6807    0.0000 C   0  0  0  0  0  0  0  0  0  0  0  0
    3.4175    3.7955    0.0000 O   0  0  0  0  0  0  0  0  0  0  0  0
    1.1147    3.4307    0.0000 C   0  0  0  0  0  0  0  0  0  0  0  0
    1.8302    4.5756    0.0000 C   0  0  0  0  0  0  0  0  0  0  0  0
   -0.3771    3.5875    0.0000 C   0  0  0  0  0  0  0  0  0  0  0  0
   -0.5339    5.0793    0.0000 O   0  0  0  0  0  0  0  0  0  0  0  0
    0.6797    5.9610    0.0000 C   0  0  0  0  0  0  0  0  0  0  0  0
    0.5229    7.4528    0.0000 C   0  0  0  0  0  0  0  0  0  0  0  0
    1.7364    8.3345    0.0000 C   0  0  0  0  0  0  0  0  0  0  0  0
    2.5752    9.5780    0.0000 C   0  0  0  0  0  0  0  0  0  0  0  0
    0.6574    9.3764    0.0000 O   0  0  0  0  0  0  0  0  0  0  0  0
    1.0203   10.8319    0.0000 C   0  0  0  0  0  0  0  0  0  0  0  0
    3.1067    7.7244    0.0000 C   0  0  0  0  0  0  0  0  0  0  0  0
    4.3202    8.6060    0.0000 O   0  0  0  0  0  0  0  0  0  0  0  0
    3.2635    6.2326    0.0000 C   0  0  0  0  0  0  0  0  0  0  0  0
    4.6338    5.6225    0.0000 C   0  0  0  0  0  0  0  0  0  0  0  0
    2.0500    5.3509    0.0000 O   0  0  0  0  0  0  0  0  0  0  0  0
   -1.8037    3.1240    0.0000 C   0  0  0  0  0  0  0  0  0  0  0  0
   -2.5537    4.4231    0.0000 C   0  0  0  0  0  0  0  0  0  0  0  0
   -2.9184    2.1203    0.0000 C   0  0  0  0  0  0  0  0  0  0  0  0
   -4.1319    3.0020    0.0000 O   0  0  0  0  0  0  0  0  0  0  0  0
   -5.5022    2.3919    0.0000 C   0  0  0  0  0  0  0  0  0  0  0  0
   -6.7157    3.2736    0.0000 O   0  0  0  0  0  0  0  0  0  0  0  0
   -8.0861    2.6635    0.0000 C   0  0  0  0  0  0  0  0  0  0  0  0
   -9.2996    3.5451    0.0000 C   0  0  0  0  0  0  0  0  0  0  0  0
   -8.2428    1.1717    0.0000 C   0  0  0  0  0  0  0  0  0  0  0  0
   -7.0293    0.2900    0.0000 C   0  0  0  0  0  0  0  0  0  0  0  0
   -7.1861   -1.2018    0.0000 N   0  0  0  0  0  0  0  0  0  0  0  0
   -8.5564   -1.8119    0.0000 C   0  0  0  0  0  0  0  0  0  0  0  0
   -5.9726   -2.0835    0.0000 C   0  0  0  0  0  0  0  0  0  0  0  0
   -5.6590    0.9001    0.0000 C   0  0  0  0  0  0  0  0  0  0  0  0
   -5.0760    0.3564    0.0000 O   0  0  0  0  0  0  0  0  0  0  0  0
   -3.5285    0.7500    0.0000 C   0  0  0  0  0  0  0  0  0  0  0  0
   -4.2257    0.3635    0.0000 C   0  0  0  0  0  0  0  0  0  0  0  0
   -4.5705    1.8290    0.0000 O   0  0  0  0  0  0  0  0  0  0  0  0
   -3.5285   -0.7500    0.0000 C   0  0  0  0  0  0  0  0  0  0  0  0
   -2.9184   -2.1203    0.0000 C   0  0  0  0  0  0  0  0  0  0  0  0
   -4.1319   -3.0020    0.0000 C   0  0  0  0  0  0  0  0  0  0  0  0
   -1.8037   -3.1240    0.0000 C   0  0  0  0  0  0  0  0  0  0  0  0
   -0.3771   -3.5875    0.0000 N   0  0  0  0  0  0  0  0  0  0  0  0
   -0.5339   -5.0793    0.0000 C   0  0  0  0  0  0  0  0  0  0  0  0
   -1.9042   -5.6894    0.0000 C   0  0  0  0  0  0  0  0  0  0  0  0
   -2.0610   -7.1812    0.0000 C   0  0  0  0  0  0  0  0  0  0  0  0
   -3.4313   -7.7913    0.0000 N   0  0  0  0  0  0  0  0  0  0  0  0
   -3.5881   -9.2831    0.0000 C   0  0  0  0  0  0  0  0  0  0  0  0
   -2.3746  -10.1648    0.0000 S   0  0  0  0  0  0  0  0  0  0  0  0
   -4.9584   -9.8932    0.0000 N   0  0  0  0  0  0  0  0  0  0  0  0
   -5.1152  -11.3850    0.0000 C   0  0  0  0  0  0  0  0  0  0  0  0
   -6.4855  -11.9951    0.0000 C   0  0  0  0  0  0  0  0  0  0  0  0
   -6.6423  -13.4869    0.0000 C   0  0  0  0  0  0  0  0  0  0  0  0
   -8.0126  -14.0970    0.0000 S   0  0  0  0  0  0  0  0  0  0  0  0
   -8.1694  -15.5888    0.0000 C   0  0  0  0  0  0  0  0  0  0  0  0
    1.1147   -3.4307    0.0000 C   0  0  0  0  0  0  0  0  0  0  0  0
    1.5782   -4.8573    0.0000 C   0  0  0  0  0  0  0  0  0  0  0  0
    2.4138   -2.6807    0.0000 C   0  0  0  0  0  0  0  0  0  0  0  0
    3.4175   -3.7955    0.0000 O   0  0  0  0  0  0  0  0  0  0  0  0
    3.2954   -1.4672    0.0000 C   0  0  0  0  0  0  0  0  0  0  0  0
    4.7726   -1.2067    0.0000 C   0  0  0  0  0  0  0  0  0  0  0  0
    4.0903   -2.7393    0.0000 O   0  0  0  0  0  0  0  0  0  0  0  0
  1  2  1  0
  3  2  1  6
  3  4  1  0
  4  5  1  0
  5  6  2  0
  5  7  1  0
  7  8  1  1
  7  9  1  0
  9 10  1  6
 11 10  1  1
 11 12  1  0
 12 13  1  0
 13 14  1  6
 13 15  1  0
 15 16  1  0
 13 17  1  0
 17 18  1  1
 17 19  1  0
 19 20  1  6
 19 21  1  0
  9 22  1  0
 22 23  1  1
 22 24  1  0
 24 25  1  6
 26 25  1  1
 26 27  1  0
 27 28  1  0
 28 29  1  1
 28 30  1  0
 30 31  1  0
 31 32  1  1
 32 33  1  0
 32 34  1  0
 31 35  1  0
 35 36  1  6
 24 37  1  0
 37 38  1  6
 37 39  1  0
 37 40  1  0
 40 41  1  0
 41 42  1  6
 41 43  1  0
 43 44  1  0
 44 45  1  0
 45 46  1  0
 46 47  1  0
 47 48  1  0
 48 49  1  0
 49 50  2  0
 49 51  1  0
 51 52  1  0
 52 53  1  0
 53 54  1  0
 54 55  1  0
 55 56  1  0
 44 57  1  0
 57 58  1  1
 57 59  1  0
 59 60  1  6
 59 61  1  0
 61 62  1  6
 61 63  1  0
 61  3  1  0
 21 11  1  0
 35 26  1  0
M  END
>  <ChEMBL_IDs>  (61) 
CHEMBL1682700

>  <target_organism>  (61) 
Homo sapiens,None,Escherichia coli K-12

>  <target_molecule_pref_name>  (61) 
None

>  <# Known Targets>  (61) 
1.0

>  <Known Targets>  (61) 
CHEMBL364

>  <smiles>  (61) 
CC[C@H]1OC(=O)[C@H](C)[C@@H](O[C@H]2C[C@@](C)(OC)[C@@H](O)[C@H](C)O2)[C@H](C)[C@@H](O[C@@H]2O[C@H](C)C[C@H](N(C)C)[C@H]2O)[C@](C)(O)C[C@@H](C)CN(CCCNC(=S)NCCCSC)[C@H](C)[C@@H](O)[C@]1(C)O

$$$$

     RDKit          2D

 65 67  0  0  0  0  0  0  0  0999 V2000
    6.0944   -1.2990    0.0000 C   0  0  0  0  0  0  0  0  0  0  0  0
    5.3444    0.0000    0.0000 O   0  0  0  0  0  0  0  0  0  0  0  0
    3.8444    0.0000    0.0000 C   0  0  0  0  0  0  0  0  0  0  0  0
    3.5517   -1.4712    0.0000 C   0  0  0  0  0  0  0  0  0  0  0  0
    4.9376   -2.0452    0.0000 O   0  0  0  0  0  0  0  0  0  0  0  0
    5.1333   -3.5324    0.0000 C   0  0  0  0  0  0  0  0  0  0  0  0
    3.9433   -4.4455    0.0000 O   0  0  0  0  0  0  0  0  0  0  0  0
    4.1391   -5.9327    0.0000 C   0  0  0  0  0  0  0  0  0  0  0  0
    2.9491   -6.8458    0.0000 C   0  0  0  0  0  0  0  0  0  0  0  0
    5.5249   -6.5067    0.0000 C   0  0  0  0  0  0  0  0  0  0  0  0
    5.7207   -7.9939    0.0000 O   0  0  0  0  0  0  0  0  0  0  0  0
    4.5307   -8.9070    0.0000 C   0  0  0  0  0  0  0  0  0  0  0  0
    3.1449   -8.3330    0.0000 C   0  0  0  0  0  0  0  0  0  0  0  0
    1.9548   -9.2461    0.0000 C   0  0  0  0  0  0  0  0  0  0  0  0
    0.5243   -9.6972    0.0000 C   0  0  0  0  0  0  0  0  0  0  0  0
    1.2622   -7.9156    0.0000 O   0  0  0  0  0  0  0  0  0  0  0  0
    2.1506  -10.7333    0.0000 C   0  0  0  0  0  0  0  0  0  0  0  0
    0.9606  -11.6464    0.0000 O   0  0  0  0  0  0  0  0  0  0  0  0
    1.1564  -13.1336    0.0000 C   0  0  0  0  0  0  0  0  0  0  0  0
    2.5422  -13.7076    0.0000 O   0  0  0  0  0  0  0  0  0  0  0  0
   -0.0336  -14.0468    0.0000 C   0  0  0  0  0  0  0  0  0  0  0  0
    0.1621  -15.5339    0.0000 C   0  0  0  0  0  0  0  0  0  0  0  0
   -1.0279  -16.4471    0.0000 C   0  0  0  0  0  0  0  0  0  0  0  0
    1.5480  -16.1079    0.0000 C   0  0  0  0  0  0  0  0  0  0  0  0
    3.5364  -11.3073    0.0000 C   0  0  0  0  0  0  0  0  0  0  0  0
    3.7322  -12.7945    0.0000 C   0  0  0  0  0  0  0  0  0  0  0  0
    4.7265  -10.3942    0.0000 O   0  0  0  0  0  0  0  0  0  0  0  0
    6.7150   -5.5936    0.0000 C   0  0  0  0  0  0  0  0  0  0  0  0
    8.1008   -6.1676    0.0000 N   0  0  0  0  0  0  0  0  0  0  0  0
    8.2966   -7.6548    0.0000 C   0  0  0  0  0  0  0  0  0  0  0  0
    9.2908   -5.2544    0.0000 C   0  0  0  0  0  0  0  0  0  0  0  0
    6.5192   -4.1064    0.0000 C   0  0  0  0  0  0  0  0  0  0  0  0
    7.7092   -3.1933    0.0000 O   0  0  0  0  0  0  0  0  0  0  0  0
    2.7184   -2.7184    0.0000 C   0  0  0  0  0  0  0  0  0  0  0  0
    3.7790   -3.7790    0.0000 C   0  0  0  0  0  0  0  0  0  0  0  0
    3.3908   -5.2279    0.0000 C   0  0  0  0  0  0  0  0  0  0  0  0
    4.1633   -6.5137    0.0000 O   0  0  0  0  0  0  0  0  0  0  0  0
    1.4712   -3.5517    0.0000 C   0  0  0  0  0  0  0  0  0  0  0  0
   -0.0000   -3.8444    0.0000 C   0  0  0  0  0  0  0  0  0  0  0  0
   -0.0000   -5.3444    0.0000 C   0  0  0  0  0  0  0  0  0  0  0  0
   -1.4712   -3.5517    0.0000 C   0  0  0  0  0  0  0  0  0  0  0  0
   -2.0452   -4.9376    0.0000 O   0  0  0  0  0  0  0  0  0  0  0  0
   -3.5324   -5.1333    0.0000 C   0  0  0  0  0  0  0  0  0  0  0  0
   -4.4455   -3.9433    0.0000 O   0  0  0  0  0  0  0  0  0  0  0  0
   -4.1064   -6.5192    0.0000 C   0  0  0  0  0  0  0  0  0  0  0  0
   -5.5936   -6.7150    0.0000 C   0  0  0  0  0  0  0  0  0  0  0  0
   -6.1676   -8.1008    0.0000 C   0  0  0  0  0  0  0  0  0  0  0  0
   -5.2544   -9.2908    0.0000 O   0  0  0  0  0  0  0  0  0  0  0  0
   -7.6548   -8.2966    0.0000 O   0  0  0  0  0  0  0  0  0  0  0  0
   -2.7184   -2.7184    0.0000 C   0  0  0  0  0  0  0  0  0  0  0  0
   -3.5517   -1.4712    0.0000 C   0  0  0  0  0  0  0  0  0  0  0  0
   -3.8444    0.0000    0.0000 C   0  0  0  0  0  0  0  0  0  0  0  0
   -3.5517    1.4712    0.0000 C   0  0  0  0  0  0  0  0  0  0  0  0
   -2.7184    2.7184    0.0000 C   0  0  0  0  0  0  0  0  0  0  0  0
   -1.4712    3.5517    0.0000 C   0  0  0  0  0  0  0  0  0  0  0  0
   -2.0452    4.9376    0.0000 C   0  0  0  0  0  0  0  0  0  0  0  0
    0.0000    3.8444    0.0000 O   0  0  0  0  0  0  0  0  0  0  0  0
    1.4712    3.5517    0.0000 C   0  0  0  0  0  0  0  0  0  0  0  0
    2.0452    4.9376    0.0000 O   0  0  0  0  0  0  0  0  0  0  0  0
    2.7184    2.7184    0.0000 C   0  0  0  0  0  0  0  0  0  0  0  0
    3.5517    1.4712    0.0000 C   0  0  0  0  0  0  0  0  0  0  0  0
    4.9376    2.0452    0.0000 O   0  0  0  0  0  0  0  0  0  0  0  0
    6.1276    1.1321    0.0000 C   0  0  0  0  0  0  0  0  0  0  0  0
    7.5134    1.7061    0.0000 C   0  0  0  0  0  0  0  0  0  0  0  0
    6.2975   -0.3583    0.0000 O   0  0  0  0  0  0  0  0  0  0  0  0
  1  2  1  0
  3  2  1  6
  3  4  1  0
  4  5  1  1
  6  5  1  1
  6  7  1  0
  7  8  1  0
  8  9  1  1
  8 10  1  0
 10 11  1  6
 12 11  1  6
 12 13  1  0
 13 14  1  0
 14 15  1  1
 14 16  1  0
 14 17  1  0
 17 18  1  6
 18 19  1  0
 19 20  2  0
 19 21  1  0
 21 22  1  0
 22 23  1  0
 22 24  1  0
 17 25  1  0
 25 26  1  1
 25 27  1  0
 10 28  1  0
 28 29  1  1
 29 30  1  0
 29 31  1  0
 28 32  1  0
 32 33  1  6
  4 34  1  0
 34 35  1  1
 35 36  1  0
 36 37  2  0
 34 38  1  0
 38 39  1  0
 39 40  1  1
 39 41  1  0
 41 42  1  1
 42 43  1  0
 43 44  2  0
 43 45  1  0
 45 46  1  0
 46 47  1  0
 47 48  2  0
 47 49  1  0
 41 50  1  0
 50 51  2  0
 51 52  1  0
 52 53  2  0
 53 54  1  0
 54 55  1  0
 55 56  1  1
 55 57  1  0
 57 58  1  0
 58 59  2  0
 58 60  1  0
 60 61  1  0
 61 62  1  1
 62 63  1  0
 63 64  1  0
 63 65  2  0
 61  3  1  0
 32  6  1  0
 27 12  1  0
M  END
>  <ChEMBL_IDs>  (62) 
CHEMBL3244605

>  <target_organism>  (62) 
None

>  <target_molecule_pref_name>  (62) 
None

>  <# Known Targets>  (62) 
1.0

>  <Known Targets>  (62) 
CHEMBL612545

>  <smiles>  (62) 
CO[C@@H]1[C@@H](O[C@@H]2O[C@H](C)[C@@H](O[C@H]3C[C@@](C)(O)[C@@H](OC(=O)CC(C)C)[C@H](C)O3)[C@H](N(C)C)[C@H]2O)[C@@H](CC=O)C[C@@H](C)[C@@H](OC(=O)CCC(=O)O)/C=C/C=C/C[C@@H](C)OC(=O)C[C@H]1OC(C)=O

$$$$

     RDKit          2D

 65 67  0  0  0  0  0  0  0  0999 V2000
    5.2279   -3.3908    0.0000 C   0  0  0  0  0  0  0  0  0  0  0  0
    3.7790   -3.7790    0.0000 O   0  0  0  0  0  0  0  0  0  0  0  0
    2.7184   -2.7184    0.0000 C   0  0  0  0  0  0  0  0  0  0  0  0
    3.5517   -1.4712    0.0000 C   0  0  0  0  0  0  0  0  0  0  0  0
    4.9376   -2.0452    0.0000 O   0  0  0  0  0  0  0  0  0  0  0  0
    6.1276   -1.1321    0.0000 C   0  0  0  0  0  0  0  0  0  0  0  0
    7.5134   -1.7061    0.0000 O   0  0  0  0  0  0  0  0  0  0  0  0
    8.7034   -0.7929    0.0000 C   0  0  0  0  0  0  0  0  0  0  0  0
   10.0893   -1.3670    0.0000 C   0  0  0  0  0  0  0  0  0  0  0  0
    8.5076    0.6942    0.0000 C   0  0  0  0  0  0  0  0  0  0  0  0
    9.6977    1.6074    0.0000 O   0  0  0  0  0  0  0  0  0  0  0  0
   11.0835    1.0333    0.0000 C   0  0  0  0  0  0  0  0  0  0  0  0
   11.2793   -0.4538    0.0000 C   0  0  0  0  0  0  0  0  0  0  0  0
   12.6651   -1.0279    0.0000 C   0  0  0  0  0  0  0  0  0  0  0  0
   13.7710   -2.0412    0.0000 C   0  0  0  0  0  0  0  0  0  0  0  0
   11.8592   -2.2929    0.0000 O   0  0  0  0  0  0  0  0  0  0  0  0
   13.8551   -0.1147    0.0000 C   0  0  0  0  0  0  0  0  0  0  0  0
   15.2410   -0.6887    0.0000 O   0  0  0  0  0  0  0  0  0  0  0  0
   16.4310    0.2244    0.0000 C   0  0  0  0  0  0  0  0  0  0  0  0
   16.2352    1.7116    0.0000 O   0  0  0  0  0  0  0  0  0  0  0  0
   17.8168   -0.3496    0.0000 C   0  0  0  0  0  0  0  0  0  0  0  0
   19.0068    0.5635    0.0000 C   0  0  0  0  0  0  0  0  0  0  0  0
   20.3927   -0.0105    0.0000 C   0  0  0  0  0  0  0  0  0  0  0  0
   18.8110    2.0507    0.0000 C   0  0  0  0  0  0  0  0  0  0  0  0
   13.6593    1.3725    0.0000 C   0  0  0  0  0  0  0  0  0  0  0  0
   14.8494    2.2856    0.0000 C   0  0  0  0  0  0  0  0  0  0  0  0
   12.2735    1.9465    0.0000 O   0  0  0  0  0  0  0  0  0  0  0  0
    7.1218    1.2682    0.0000 C   0  0  0  0  0  0  0  0  0  0  0  0
    6.9260    2.7554    0.0000 N   0  0  0  0  0  0  0  0  0  0  0  0
    6.2853    3.2296    0.0000 C   0  0  0  0  0  0  0  0  0  0  0  0
    8.1161    3.6686    0.0000 C   0  0  0  0  0  0  0  0  0  0  0  0
    5.9318    0.3551    0.0000 C   0  0  0  0  0  0  0  0  0  0  0  0
    4.5460    0.9291    0.0000 O   0  0  0  0  0  0  0  0  0  0  0  0
    4.3502    2.4163    0.0000 C   0  0  0  0  0  0  0  0  0  0  0  0
    3.1445    3.3086    0.0000 O   0  0  0  0  0  0  0  0  0  0  0  0
    5.5402    3.3294    0.0000 C   0  0  0  0  0  0  0  0  0  0  0  0
    5.3444    4.8166    0.0000 C   0  0  0  0  0  0  0  0  0  0  0  0
    6.5345    5.7298    0.0000 C   0  0  0  0  0  0  0  0  0  0  0  0
    7.9203    5.1557    0.0000 O   0  0  0  0  0  0  0  0  0  0  0  0
    6.3387    7.2169    0.0000 O   0  0  0  0  0  0  0  0  0  0  0  0
    3.8444   -0.0000    0.0000 C   0  0  0  0  0  0  0  0  0  0  0  0
    5.3444   -0.0000    0.0000 C   0  0  0  0  0  0  0  0  0  0  0  0
    6.0944    1.2990    0.0000 C   0  0  0  0  0  0  0  0  0  0  0  0
    7.5498    1.6620    0.0000 O   0  0  0  0  0  0  0  0  0  0  0  0
    3.5517    1.4712    0.0000 C   0  0  0  0  0  0  0  0  0  0  0  0
    2.7184    2.7184    0.0000 C   0  0  0  0  0  0  0  0  0  0  0  0
    3.7790    3.7790    0.0000 C   0  0  0  0  0  0  0  0  0  0  0  0
    1.4712    3.5517    0.0000 C   0  0  0  0  0  0  0  0  0  0  0  0
    2.0452    4.9376    0.0000 O   0  0  0  0  0  0  0  0  0  0  0  0
    0.0000    3.8444    0.0000 C   0  0  0  0  0  0  0  0  0  0  0  0
   -1.4712    3.5517    0.0000 C   0  0  0  0  0  0  0  0  0  0  0  0
   -2.7184    2.7184    0.0000 C   0  0  0  0  0  0  0  0  0  0  0  0
   -3.5517    1.4712    0.0000 C   0  0  0  0  0  0  0  0  0  0  0  0
   -3.8444    0.0000    0.0000 C   0  0  0  0  0  0  0  0  0  0  0  0
   -3.5517   -1.4712    0.0000 C   0  0  0  0  0  0  0  0  0  0  0  0
   -4.9376   -2.0452    0.0000 C   0  0  0  0  0  0  0  0  0  0  0  0
   -2.7184   -2.7184    0.0000 O   0  0  0  0  0  0  0  0  0  0  0  0
   -1.4712   -3.5517    0.0000 C   0  0  0  0  0  0  0  0  0  0  0  0
   -2.0452   -4.9376    0.0000 O   0  0  0  0  0  0  0  0  0  0  0  0
   -0.0000   -3.8444    0.0000 C   0  0  0  0  0  0  0  0  0  0  0  0
    1.4712   -3.5517    0.0000 C   0  0  0  0  0  0  0  0  0  0  0  0
    2.0452   -4.9376    0.0000 O   0  0  0  0  0  0  0  0  0  0  0  0
    3.5324   -5.1333    0.0000 C   0  0  0  0  0  0  0  0  0  0  0  0
    4.1064   -6.5192    0.0000 C   0  0  0  0  0  0  0  0  0  0  0  0
    4.7063   -4.1996    0.0000 O   0  0  0  0  0  0  0  0  0  0  0  0
  1  2  1  0
  3  2  1  1
  3  4  1  0
  4  5  1  6
  6  5  1  1
  6  7  1  0
  7  8  1  0
  8  9  1  1
  8 10  1  0
 10 11  1  6
 12 11  1  6
 12 13  1  0
 13 14  1  0
 14 15  1  1
 14 16  1  0
 14 17  1  0
 17 18  1  6
 18 19  1  0
 19 20  2  0
 19 21  1  0
 21 22  1  0
 22 23  1  0
 22 24  1  0
 17 25  1  0
 25 26  1  1
 25 27  1  0
 10 28  1  0
 28 29  1  1
 29 30  1  0
 29 31  1  0
 28 32  1  0
 32 33  1  6
 33 34  1  0
 34 35  2  0
 34 36  1  0
 36 37  1  0
 37 38  1  0
 38 39  2  0
 38 40  1  0
  4 41  1  0
 41 42  1  6
 42 43  1  0
 43 44  2  0
 41 45  1  0
 45 46  1  0
 46 47  1  6
 46 48  1  0
 48 49  1  6
 48 50  1  0
 50 51  2  0
 51 52  1  0
 52 53  2  0
 53 54  1  0
 54 55  1  0
 55 56  1  6
 55 57  1  0
 57 58  1  0
 58 59  2  0
 58 60  1  0
 60 61  1  0
 61 62  1  6
 62 63  1  0
 63 64  1  0
 63 65  2  0
 61  3  1  0
 32  6  1  0
 27 12  1  0
M  END
>  <ChEMBL_IDs>  (63) 
CHEMBL3244604

>  <target_organism>  (63) 
None

>  <target_molecule_pref_name>  (63) 
None

>  <# Known Targets>  (63) 
1.0

>  <Known Targets>  (63) 
CHEMBL612545

>  <smiles>  (63) 
CO[C@@H]1[C@@H](O[C@@H]2O[C@H](C)[C@@H](O[C@H]3C[C@@](C)(O)[C@@H](OC(=O)CC(C)C)[C@H](C)O3)[C@H](N(C)C)[C@H]2OC(=O)CCC(=O)O)[C@@H](CC=O)C[C@@H](C)[C@@H](O)/C=C/C=C/C[C@@H](C)OC(=O)C[C@H]1OC(C)=O

$$$$

     RDKit          2D

 62 64  0  0  0  0  0  0  0  0999 V2000
    5.8573   -1.2990    0.0000 C   0  0  0  0  0  0  0  0  0  0  0  0
    5.1073    0.0000    0.0000 C   0  0  0  0  0  0  0  0  0  0  0  0
    3.6073    0.0000    0.0000 C   0  0  0  0  0  0  0  0  0  0  0  0
    3.2954    1.4672    0.0000 O   0  0  0  0  0  0  0  0  0  0  0  0
    2.4138    2.6807    0.0000 C   0  0  0  0  0  0  0  0  0  0  0  0
    3.4175    3.7955    0.0000 O   0  0  0  0  0  0  0  0  0  0  0  0
    1.1147    3.4307    0.0000 C   0  0  0  0  0  0  0  0  0  0  0  0
    1.8302    4.5756    0.0000 C   0  0  0  0  0  0  0  0  0  0  0  0
   -0.3771    3.5875    0.0000 C   0  0  0  0  0  0  0  0  0  0  0  0
   -0.5339    5.0793    0.0000 O   0  0  0  0  0  0  0  0  0  0  0  0
    0.6797    5.9610    0.0000 C   0  0  0  0  0  0  0  0  0  0  0  0
    0.5229    7.4528    0.0000 C   0  0  0  0  0  0  0  0  0  0  0  0
    1.7364    8.3345    0.0000 C   0  0  0  0  0  0  0  0  0  0  0  0
    2.5752    9.5780    0.0000 C   0  0  0  0  0  0  0  0  0  0  0  0
    0.6574    9.3764    0.0000 O   0  0  0  0  0  0  0  0  0  0  0  0
    1.0203   10.8319    0.0000 C   0  0  0  0  0  0  0  0  0  0  0  0
    3.1067    7.7244    0.0000 C   0  0  0  0  0  0  0  0  0  0  0  0
    4.3202    8.6060    0.0000 O   0  0  0  0  0  0  0  0  0  0  0  0
    3.2635    6.2326    0.0000 C   0  0  0  0  0  0  0  0  0  0  0  0
    4.6338    5.6225    0.0000 C   0  0  0  0  0  0  0  0  0  0  0  0
    2.0500    5.3509    0.0000 O   0  0  0  0  0  0  0  0  0  0  0  0
   -1.8037    3.1240    0.0000 C   0  0  0  0  0  0  0  0  0  0  0  0
   -2.5537    4.4231    0.0000 C   0  0  0  0  0  0  0  0  0  0  0  0
   -2.9184    2.1203    0.0000 C   0  0  0  0  0  0  0  0  0  0  0  0
   -4.1319    3.0020    0.0000 O   0  0  0  0  0  0  0  0  0  0  0  0
   -5.5022    2.3919    0.0000 C   0  0  0  0  0  0  0  0  0  0  0  0
   -6.7157    3.2736    0.0000 O   0  0  0  0  0  0  0  0  0  0  0  0
   -8.0861    2.6635    0.0000 C   0  0  0  0  0  0  0  0  0  0  0  0
   -9.2996    3.5451    0.0000 C   0  0  0  0  0  0  0  0  0  0  0  0
   -8.2428    1.1717    0.0000 C   0  0  0  0  0  0  0  0  0  0  0  0
   -7.0293    0.2900    0.0000 C   0  0  0  0  0  0  0  0  0  0  0  0
   -7.1861   -1.2018    0.0000 N   0  0  0  0  0  0  0  0  0  0  0  0
   -8.5564   -1.8119    0.0000 C   0  0  0  0  0  0  0  0  0  0  0  0
   -5.9726   -2.0835    0.0000 C   0  0  0  0  0  0  0  0  0  0  0  0
   -5.6590    0.9001    0.0000 C   0  0  0  0  0  0  0  0  0  0  0  0
   -5.0760    0.3564    0.0000 O   0  0  0  0  0  0  0  0  0  0  0  0
   -3.5285    0.7500    0.0000 C   0  0  0  0  0  0  0  0  0  0  0  0
   -4.2257    0.3635    0.0000 C   0  0  0  0  0  0  0  0  0  0  0  0
   -4.5705    1.8290    0.0000 O   0  0  0  0  0  0  0  0  0  0  0  0
   -3.5285   -0.7500    0.0000 C   0  0  0  0  0  0  0  0  0  0  0  0
   -2.9184   -2.1203    0.0000 C   0  0  0  0  0  0  0  0  0  0  0  0
   -4.1319   -3.0020    0.0000 C   0  0  0  0  0  0  0  0  0  0  0  0
   -1.8037   -3.1240    0.0000 C   0  0  0  0  0  0  0  0  0  0  0  0
   -0.3771   -3.5875    0.0000 N   0  0  0  0  0  0  0  0  0  0  0  0
   -0.5339   -5.0793    0.0000 C   0  0  0  0  0  0  0  0  0  0  0  0
   -1.9042   -5.6894    0.0000 C   0  0  0  0  0  0  0  0  0  0  0  0
   -2.0610   -7.1812    0.0000 C   0  0  0  0  0  0  0  0  0  0  0  0
   -3.4313   -7.7913    0.0000 N   0  0  0  0  0  0  0  0  0  0  0  0
   -3.5881   -9.2831    0.0000 C   0  0  0  0  0  0  0  0  0  0  0  0
   -2.3746  -10.1648    0.0000 S   0  0  0  0  0  0  0  0  0  0  0  0
   -4.9584   -9.8932    0.0000 N   0  0  0  0  0  0  0  0  0  0  0  0
   -5.1152  -11.3850    0.0000 C   0  0  0  0  0  0  0  0  0  0  0  0
   -6.4855  -11.9951    0.0000 C   0  0  0  0  0  0  0  0  0  0  0  0
   -6.6423  -13.4869    0.0000 C   0  0  0  0  0  0  0  0  0  0  0  0
   -7.6990  -11.1134    0.0000 C   0  0  0  0  0  0  0  0  0  0  0  0
    1.1147   -3.4307    0.0000 C   0  0  0  0  0  0  0  0  0  0  0  0
    1.5782   -4.8573    0.0000 C   0  0  0  0  0  0  0  0  0  0  0  0
    2.4138   -2.6807    0.0000 C   0  0  0  0  0  0  0  0  0  0  0  0
    3.4175   -3.7955    0.0000 O   0  0  0  0  0  0  0  0  0  0  0  0
    3.2954   -1.4672    0.0000 C   0  0  0  0  0  0  0  0  0  0  0  0
    4.7726   -1.2067    0.0000 C   0  0  0  0  0  0  0  0  0  0  0  0
    4.0903   -2.7393    0.0000 O   0  0  0  0  0  0  0  0  0  0  0  0
  1  2  1  0
  3  2  1  6
  3  4  1  0
  4  5  1  0
  5  6  2  0
  5  7  1  0
  7  8  1  1
  7  9  1  0
  9 10  1  6
 11 10  1  1
 11 12  1  0
 12 13  1  0
 13 14  1  6
 13 15  1  0
 15 16  1  0
 13 17  1  0
 17 18  1  1
 17 19  1  0
 19 20  1  6
 19 21  1  0
  9 22  1  0
 22 23  1  1
 22 24  1  0
 24 25  1  6
 26 25  1  1
 26 27  1  0
 27 28  1  0
 28 29  1  1
 28 30  1  0
 30 31  1  0
 31 32  1  1
 32 33  1  0
 32 34  1  0
 31 35  1  0
 35 36  1  6
 24 37  1  0
 37 38  1  6
 37 39  1  0
 37 40  1  0
 40 41  1  0
 41 42  1  6
 41 43  1  0
 43 44  1  0
 44 45  1  0
 45 46  1  0
 46 47  1  0
 47 48  1  0
 48 49  1  0
 49 50  2  0
 49 51  1  0
 51 52  1  0
 52 53  1  0
 53 54  1  0
 53 55  1  0
 44 56  1  0
 56 57  1  1
 56 58  1  0
 58 59  1  6
 58 60  1  0
 60 61  1  6
 60 62  1  0
 60  3  1  0
 21 11  1  0
 35 26  1  0
M  END
>  <ChEMBL_IDs>  (64) 
CHEMBL1682708

>  <target_organism>  (64) 
Homo sapiens,None,Escherichia coli K-12

>  <target_molecule_pref_name>  (64) 
None

>  <# Known Targets>  (64) 
1.0

>  <Known Targets>  (64) 
CHEMBL364

>  <smiles>  (64) 
CC[C@H]1OC(=O)[C@H](C)[C@@H](O[C@H]2C[C@@](C)(OC)[C@@H](O)[C@H](C)O2)[C@H](C)[C@@H](O[C@@H]2O[C@H](C)C[C@H](N(C)C)[C@H]2O)[C@](C)(O)C[C@@H](C)CN(CCCNC(=S)NCC(C)C)[C@H](C)[C@@H](O)[C@]1(C)O

$$$$

     RDKit          2D

 62 64  0  0  0  0  0  0  0  0999 V2000
   14.8573    6.4952    0.0000 C   0  0  0  0  0  0  0  0  0  0  0  0
   14.1073    5.1962    0.0000 C   0  0  0  0  0  0  0  0  0  0  0  0
   12.6073    5.1962    0.0000 C   0  0  0  0  0  0  0  0  0  0  0  0
   11.8573    3.8971    0.0000 C   0  0  0  0  0  0  0  0  0  0  0  0
   10.3573    3.8971    0.0000 N   0  0  0  0  0  0  0  0  0  0  0  0
    9.6073    2.5981    0.0000 C   0  0  0  0  0  0  0  0  0  0  0  0
   10.3573    1.2990    0.0000 S   0  0  0  0  0  0  0  0  0  0  0  0
    8.1073    2.5981    0.0000 N   0  0  0  0  0  0  0  0  0  0  0  0
    7.3573    1.2990    0.0000 C   0  0  0  0  0  0  0  0  0  0  0  0
    5.8573    1.2990    0.0000 C   0  0  0  0  0  0  0  0  0  0  0  0
    5.1073    0.0000    0.0000 C   0  0  0  0  0  0  0  0  0  0  0  0
    3.6073    0.0000    0.0000 N   0  0  0  0  0  0  0  0  0  0  0  0
    3.2954    1.4672    0.0000 C   0  0  0  0  0  0  0  0  0  0  0  0
    2.4138    2.6807    0.0000 C   0  0  0  0  0  0  0  0  0  0  0  0
    3.4175    3.7955    0.0000 C   0  0  0  0  0  0  0  0  0  0  0  0
    1.1147    3.4307    0.0000 C   0  0  0  0  0  0  0  0  0  0  0  0
   -0.3771    3.5875    0.0000 C   0  0  0  0  0  0  0  0  0  0  0  0
   -1.3412    4.7366    0.0000 C   0  0  0  0  0  0  0  0  0  0  0  0
    0.3271    4.9120    0.0000 O   0  0  0  0  0  0  0  0  0  0  0  0
   -1.8037    3.1240    0.0000 C   0  0  0  0  0  0  0  0  0  0  0  0
   -2.5537    4.4231    0.0000 O   0  0  0  0  0  0  0  0  0  0  0  0
   -1.8037    5.7221    0.0000 C   0  0  0  0  0  0  0  0  0  0  0  0
   -0.3037    5.7221    0.0000 O   0  0  0  0  0  0  0  0  0  0  0  0
    0.4463    7.0211    0.0000 C   0  0  0  0  0  0  0  0  0  0  0  0
    1.9463    7.0211    0.0000 C   0  0  0  0  0  0  0  0  0  0  0  0
   -0.3037    8.3202    0.0000 C   0  0  0  0  0  0  0  0  0  0  0  0
   -1.8037    8.3202    0.0000 C   0  0  0  0  0  0  0  0  0  0  0  0
   -2.5537    9.6192    0.0000 N   0  0  0  0  0  0  0  0  0  0  0  0
   -1.8037   10.9182    0.0000 C   0  0  0  0  0  0  0  0  0  0  0  0
   -4.0537    9.6192    0.0000 C   0  0  0  0  0  0  0  0  0  0  0  0
   -2.5537    7.0211    0.0000 C   0  0  0  0  0  0  0  0  0  0  0  0
   -4.0537    7.0211    0.0000 O   0  0  0  0  0  0  0  0  0  0  0  0
   -2.9184    2.1203    0.0000 C   0  0  0  0  0  0  0  0  0  0  0  0
   -4.1319    3.0020    0.0000 C   0  0  0  0  0  0  0  0  0  0  0  0
   -3.5285    0.7500    0.0000 C   0  0  0  0  0  0  0  0  0  0  0  0
   -4.9957    1.0619    0.0000 O   0  0  0  0  0  0  0  0  0  0  0  0
   -5.9994   -0.0528    0.0000 C   0  0  0  0  0  0  0  0  0  0  0  0
   -7.4666    0.2590    0.0000 C   0  0  0  0  0  0  0  0  0  0  0  0
   -8.4703   -0.8557    0.0000 C   0  0  0  0  0  0  0  0  0  0  0  0
   -9.7947   -1.5599    0.0000 C   0  0  0  0  0  0  0  0  0  0  0  0
   -9.3938    0.3263    0.0000 O   0  0  0  0  0  0  0  0  0  0  0  0
  -10.8792    0.1176    0.0000 C   0  0  0  0  0  0  0  0  0  0  0  0
   -8.0068   -2.2823    0.0000 C   0  0  0  0  0  0  0  0  0  0  0  0
   -9.0105   -3.3970    0.0000 O   0  0  0  0  0  0  0  0  0  0  0  0
   -6.5396   -2.5942    0.0000 C   0  0  0  0  0  0  0  0  0  0  0  0
   -6.0760   -4.0207    0.0000 C   0  0  0  0  0  0  0  0  0  0  0  0
   -5.5359   -1.4794    0.0000 O   0  0  0  0  0  0  0  0  0  0  0  0
   -3.5285   -0.7500    0.0000 C   0  0  0  0  0  0  0  0  0  0  0  0
   -4.7418   -1.3419    0.0000 C   0  0  0  0  0  0  0  0  0  0  0  0
   -2.9184   -2.1203    0.0000 C   0  0  0  0  0  0  0  0  0  0  0  0
   -4.1319   -3.0020    0.0000 O   0  0  0  0  0  0  0  0  0  0  0  0
   -1.8037   -3.1240    0.0000 O   0  0  0  0  0  0  0  0  0  0  0  0
   -0.3771   -3.5875    0.0000 C   0  0  0  0  0  0  0  0  0  0  0  0
   -0.5339   -5.0793    0.0000 C   0  0  0  0  0  0  0  0  0  0  0  0
   -1.9042   -5.6894    0.0000 C   0  0  0  0  0  0  0  0  0  0  0  0
    1.1147   -3.4307    0.0000 C   0  0  0  0  0  0  0  0  0  0  0  0
    2.2967   -4.3542    0.0000 C   0  0  0  0  0  0  0  0  0  0  0  0
    0.7013   -4.8726    0.0000 O   0  0  0  0  0  0  0  0  0  0  0  0
    2.4138   -2.6807    0.0000 C   0  0  0  0  0  0  0  0  0  0  0  0
    3.4175   -3.7955    0.0000 O   0  0  0  0  0  0  0  0  0  0  0  0
    3.2954   -1.4672    0.0000 C   0  0  0  0  0  0  0  0  0  0  0  0
    4.6658   -2.0773    0.0000 C   0  0  0  0  0  0  0  0  0  0  0  0
  1  2  1  0
  2  3  1  0
  3  4  1  0
  4  5  1  0
  5  6  1  0
  6  7  2  0
  6  8  1  0
  8  9  1  0
  9 10  1  0
 10 11  1  0
 11 12  1  0
 12 13  1  0
 13 14  1  0
 14 15  1  1
 14 16  1  0
 16 17  1  0
 17 18  1  1
 17 19  1  0
 17 20  1  0
 20 21  1  1
 22 21  1  1
 22 23  1  0
 23 24  1  0
 24 25  1  1
 24 26  1  0
 26 27  1  0
 27 28  1  1
 28 29  1  0
 28 30  1  0
 27 31  1  0
 31 32  1  6
 20 33  1  0
 33 34  1  6
 33 35  1  0
 35 36  1  1
 37 36  1  6
 37 38  1  0
 38 39  1  0
 39 40  1  1
 39 41  1  0
 41 42  1  0
 39 43  1  0
 43 44  1  6
 43 45  1  0
 45 46  1  1
 45 47  1  0
 35 48  1  0
 48 49  1  6
 48 50  1  0
 50 51  2  0
 50 52  1  0
 52 53  1  0
 53 54  1  1
 54 55  1  0
 53 56  1  0
 56 57  1  1
 56 58  1  0
 56 59  1  0
 59 60  1  1
 59 61  1  0
 61 62  1  6
 61 12  1  0
 31 22  1  0
 47 37  1  0
M  END
>  <ChEMBL_IDs>  (65) 
CHEMBL1682701

>  <target_organism>  (65) 
Homo sapiens,None,Escherichia coli K-12

>  <target_molecule_pref_name>  (65) 
None

>  <# Known Targets>  (65) 
1.0

>  <Known Targets>  (65) 
CHEMBL364

>  <smiles>  (65) 
CCCCNC(=S)NCCCN1C[C@H](C)C[C@@](C)(O)[C@H](O[C@@H]2O[C@H](C)C[C@H](N(C)C)[C@H]2O)[C@@H](C)[C@H](O[C@H]2C[C@@](C)(OC)[C@@H](O)[C@H](C)O2)[C@@H](C)C(=O)O[C@H](CC)[C@@](C)(O)[C@H](O)[C@H]1C

$$$$

     RDKit          2D

 62 64  0  0  0  0  0  0  0  0999 V2000
   13.8705   -5.1962    0.0000 C   0  0  0  0  0  0  0  0  0  0  0  0
   12.3705   -5.1962    0.0000 C   0  0  0  0  0  0  0  0  0  0  0  0
   11.6205   -3.8971    0.0000 C   0  0  0  0  0  0  0  0  0  0  0  0
   10.1205   -3.8971    0.0000 N   0  0  0  0  0  0  0  0  0  0  0  0
    9.3705   -2.5981    0.0000 C   0  0  0  0  0  0  0  0  0  0  0  0
   10.1205   -1.2990    0.0000 S   0  0  0  0  0  0  0  0  0  0  0  0
    7.8705   -2.5981    0.0000 N   0  0  0  0  0  0  0  0  0  0  0  0
    7.1205   -1.2990    0.0000 C   0  0  0  0  0  0  0  0  0  0  0  0
    5.6205   -1.2990    0.0000 C   0  0  0  0  0  0  0  0  0  0  0  0
    4.8705    0.0000    0.0000 O   0  0  0  0  0  0  0  0  0  0  0  0
    3.3705    0.0000    0.0000 C   0  0  0  0  0  0  0  0  0  0  0  0
    3.0367   -1.4624    0.0000 C   0  0  0  0  0  0  0  0  0  0  0  0
    4.3881   -2.1132    0.0000 C   0  0  0  0  0  0  0  0  0  0  0  0
    2.1015   -2.6351    0.0000 C   0  0  0  0  0  0  0  0  0  0  0  0
    0.7500   -3.2860    0.0000 C   0  0  0  0  0  0  0  0  0  0  0  0
    1.8496   -4.3062    0.0000 C   0  0  0  0  0  0  0  0  0  0  0  0
    0.2020   -4.6823    0.0000 O   0  0  0  0  0  0  0  0  0  0  0  0
   -0.7500   -3.2860    0.0000 C   0  0  0  0  0  0  0  0  0  0  0  0
   -1.0838   -4.7484    0.0000 O   0  0  0  0  0  0  0  0  0  0  0  0
    0.0158   -5.7686    0.0000 C   0  0  0  0  0  0  0  0  0  0  0  0
    1.4492   -5.3265    0.0000 O   0  0  0  0  0  0  0  0  0  0  0  0
    2.5487   -6.3467    0.0000 C   0  0  0  0  0  0  0  0  0  0  0  0
    3.9821   -5.9046    0.0000 C   0  0  0  0  0  0  0  0  0  0  0  0
    2.2150   -7.8091    0.0000 C   0  0  0  0  0  0  0  0  0  0  0  0
    0.7816   -8.2513    0.0000 C   0  0  0  0  0  0  0  0  0  0  0  0
    0.4478   -9.7137    0.0000 N   0  0  0  0  0  0  0  0  0  0  0  0
    1.5474  -10.7339    0.0000 C   0  0  0  0  0  0  0  0  0  0  0  0
   -0.9855  -10.1558    0.0000 C   0  0  0  0  0  0  0  0  0  0  0  0
   -1.3193  -11.6182    0.0000 C   0  0  0  0  0  0  0  0  0  0  0  0
   -2.0851   -9.1355    0.0000 C   0  0  0  0  0  0  0  0  0  0  0  0
   -0.3180   -7.2310    0.0000 C   0  0  0  0  0  0  0  0  0  0  0  0
   -1.7513   -7.6731    0.0000 O   0  0  0  0  0  0  0  0  0  0  0  0
   -2.1015   -2.6351    0.0000 C   0  0  0  0  0  0  0  0  0  0  0  0
   -3.0367   -3.8079    0.0000 C   0  0  0  0  0  0  0  0  0  0  0  0
   -3.0367   -1.4624    0.0000 C   0  0  0  0  0  0  0  0  0  0  0  0
   -4.3881   -2.1132    0.0000 O   0  0  0  0  0  0  0  0  0  0  0  0
   -5.6275   -1.2682    0.0000 C   0  0  0  0  0  0  0  0  0  0  0  0
   -6.9790   -1.9191    0.0000 C   0  0  0  0  0  0  0  0  0  0  0  0
   -8.2183   -1.0741    0.0000 C   0  0  0  0  0  0  0  0  0  0  0  0
   -9.6719   -0.7039    0.0000 C   0  0  0  0  0  0  0  0  0  0  0  0
   -8.8352   -2.4413    0.0000 O   0  0  0  0  0  0  0  0  0  0  0  0
  -10.3278   -2.5907    0.0000 C   0  0  0  0  0  0  0  0  0  0  0  0
   -8.1062    0.4217    0.0000 C   0  0  0  0  0  0  0  0  0  0  0  0
   -9.3456    1.2667    0.0000 O   0  0  0  0  0  0  0  0  0  0  0  0
   -6.7548    1.0725    0.0000 C   0  0  0  0  0  0  0  0  0  0  0  0
   -6.6427    2.5684    0.0000 C   0  0  0  0  0  0  0  0  0  0  0  0
   -5.5154    0.2276    0.0000 O   0  0  0  0  0  0  0  0  0  0  0  0
   -3.3705    0.0000    0.0000 C   0  0  0  0  0  0  0  0  0  0  0  0
   -4.6804    0.3267    0.0000 C   0  0  0  0  0  0  0  0  0  0  0  0
   -3.0367    1.4624    0.0000 C   0  0  0  0  0  0  0  0  0  0  0  0
   -4.3881    2.1132    0.0000 O   0  0  0  0  0  0  0  0  0  0  0  0
   -2.1015    2.6351    0.0000 O   0  0  0  0  0  0  0  0  0  0  0  0
   -0.7500    3.2860    0.0000 C   0  0  0  0  0  0  0  0  0  0  0  0
   -1.0838    4.7484    0.0000 C   0  0  0  0  0  0  0  0  0  0  0  0
    0.0158    5.7686    0.0000 C   0  0  0  0  0  0  0  0  0  0  0  0
    0.7500    3.2860    0.0000 C   0  0  0  0  0  0  0  0  0  0  0  0
    0.2020    4.6823    0.0000 C   0  0  0  0  0  0  0  0  0  0  0  0
    1.8496    4.3062    0.0000 O   0  0  0  0  0  0  0  0  0  0  0  0
    2.1015    2.6351    0.0000 C   0  0  0  0  0  0  0  0  0  0  0  0
    3.0367    3.8079    0.0000 O   0  0  0  0  0  0  0  0  0  0  0  0
    3.0367    1.4624    0.0000 C   0  0  0  0  0  0  0  0  0  0  0  0
    4.3881    2.1132    0.0000 C   0  0  0  0  0  0  0  0  0  0  0  0
  1  2  1  0
  2  3  1  0
  3  4  1  0
  4  5  1  0
  5  6  2  0
  5  7  1  0
  7  8  1  0
  8  9  1  0
  9 10  1  0
 11 10  1  1
 11 12  1  0
 12 13  1  6
 12 14  1  0
 14 15  1  0
 15 16  1  6
 15 17  1  0
 15 18  1  0
 18 19  1  6
 20 19  1  6
 20 21  1  0
 21 22  1  0
 22 23  1  6
 22 24  1  0
 24 25  1  0
 25 26  1  6
 26 27  1  0
 26 28  1  0
 28 29  1  0
 28 30  1  0
 25 31  1  0
 31 32  1  1
 18 33  1  0
 33 34  1  1
 33 35  1  0
 35 36  1  6
 37 36  1  1
 37 38  1  0
 38 39  1  0
 39 40  1  6
 39 41  1  0
 41 42  1  0
 39 43  1  0
 43 44  1  1
 43 45  1  0
 45 46  1  6
 45 47  1  0
 35 48  1  0
 48 49  1  1
 48 50  1  0
 50 51  2  0
 50 52  1  0
 52 53  1  0
 53 54  1  6
 54 55  1  0
 53 56  1  0
 56 57  1  6
 56 58  1  0
 56 59  1  0
 59 60  1  6
 59 61  1  0
 61 62  1  1
 61 11  1  0
 31 20  1  0
 47 37  1  0
M  END
>  <ChEMBL_IDs>  (66) 
CHEMBL1269443

>  <target_organism>  (66) 
nan

>  <target_molecule_pref_name>  (66) 
None

>  <# Known Targets>  (66) 
1.0

>  <Known Targets>  (66) 
CHEMBL3879801

>  <smiles>  (66) 
CCCNC(=S)NCCO[C@H]1[C@H](C)C[C@@](C)(O)[C@H](O[C@@H]2O[C@H](C)C[C@H](N(C)C(C)C)[C@H]2O)[C@@H](C)[C@H](O[C@H]2C[C@@](C)(OC)[C@@H](O)[C@H](C)O2)[C@@H](C)C(=O)O[C@H](CC)[C@@](C)(O)[C@H](O)[C@H]1C

$$$$

     RDKit          2D

 61 63  0  0  0  0  0  0  0  0999 V2000
    5.6205   -1.2990    0.0000 C   0  0  0  0  0  0  0  0  0  0  0  0
    4.8705    0.0000    0.0000 C   0  0  0  0  0  0  0  0  0  0  0  0
    3.3705    0.0000    0.0000 C   0  0  0  0  0  0  0  0  0  0  0  0
    3.0367   -1.4624    0.0000 O   0  0  0  0  0  0  0  0  0  0  0  0
    2.1015   -2.6351    0.0000 C   0  0  0  0  0  0  0  0  0  0  0  0
    3.0367   -3.8079    0.0000 O   0  0  0  0  0  0  0  0  0  0  0  0
    0.7500   -3.2860    0.0000 C   0  0  0  0  0  0  0  0  0  0  0  0
    1.3600   -4.4903    0.0000 C   0  0  0  0  0  0  0  0  0  0  0  0
   -0.7500   -3.2860    0.0000 C   0  0  0  0  0  0  0  0  0  0  0  0
   -1.0838   -4.7484    0.0000 O   0  0  0  0  0  0  0  0  0  0  0  0
    0.0158   -5.7686    0.0000 C   0  0  0  0  0  0  0  0  0  0  0  0
   -0.3180   -7.2310    0.0000 C   0  0  0  0  0  0  0  0  0  0  0  0
    0.7816   -8.2513    0.0000 C   0  0  0  0  0  0  0  0  0  0  0  0
    1.4659   -9.5861    0.0000 C   0  0  0  0  0  0  0  0  0  0  0  0
   -0.4141   -9.1570    0.0000 O   0  0  0  0  0  0  0  0  0  0  0  0
   -0.2276  -10.6453    0.0000 C   0  0  0  0  0  0  0  0  0  0  0  0
    2.2150   -7.8091    0.0000 C   0  0  0  0  0  0  0  0  0  0  0  0
    3.3145   -8.8294    0.0000 O   0  0  0  0  0  0  0  0  0  0  0  0
    2.5487   -6.3467    0.0000 C   0  0  0  0  0  0  0  0  0  0  0  0
    3.9821   -5.9046    0.0000 C   0  0  0  0  0  0  0  0  0  0  0  0
    1.4492   -5.3265    0.0000 O   0  0  0  0  0  0  0  0  0  0  0  0
   -2.1015   -2.6351    0.0000 C   0  0  0  0  0  0  0  0  0  0  0  0
   -3.0367   -3.8079    0.0000 C   0  0  0  0  0  0  0  0  0  0  0  0
   -3.0367   -1.4624    0.0000 C   0  0  0  0  0  0  0  0  0  0  0  0
   -4.3881   -2.1132    0.0000 O   0  0  0  0  0  0  0  0  0  0  0  0
   -5.6275   -1.2682    0.0000 C   0  0  0  0  0  0  0  0  0  0  0  0
   -5.5154    0.2276    0.0000 O   0  0  0  0  0  0  0  0  0  0  0  0
   -6.7548    1.0725    0.0000 C   0  0  0  0  0  0  0  0  0  0  0  0
   -6.6427    2.5684    0.0000 C   0  0  0  0  0  0  0  0  0  0  0  0
   -8.1062    0.4217    0.0000 C   0  0  0  0  0  0  0  0  0  0  0  0
   -8.2183   -1.0741    0.0000 C   0  0  0  0  0  0  0  0  0  0  0  0
   -9.5698   -1.7249    0.0000 N   0  0  0  0  0  0  0  0  0  0  0  0
  -10.8091   -0.8799    0.0000 C   0  0  0  0  0  0  0  0  0  0  0  0
   -9.6819   -3.2207    0.0000 C   0  0  0  0  0  0  0  0  0  0  0  0
  -11.0333   -3.8715    0.0000 C   0  0  0  0  0  0  0  0  0  0  0  0
   -8.4425   -4.0657    0.0000 C   0  0  0  0  0  0  0  0  0  0  0  0
   -6.9790   -1.9191    0.0000 C   0  0  0  0  0  0  0  0  0  0  0  0
   -7.0910   -3.4149    0.0000 O   0  0  0  0  0  0  0  0  0  0  0  0
   -3.3705    0.0000    0.0000 C   0  0  0  0  0  0  0  0  0  0  0  0
   -4.6098   -0.8450    0.0000 C   0  0  0  0  0  0  0  0  0  0  0  0
   -4.6098    0.8450    0.0000 O   0  0  0  0  0  0  0  0  0  0  0  0
   -3.0367    1.4624    0.0000 C   0  0  0  0  0  0  0  0  0  0  0  0
   -2.1015    2.6351    0.0000 C   0  0  0  0  0  0  0  0  0  0  0  0
   -3.0367    3.8079    0.0000 C   0  0  0  0  0  0  0  0  0  0  0  0
   -0.7500    3.2860    0.0000 C   0  0  0  0  0  0  0  0  0  0  0  0
   -1.0838    4.7484    0.0000 O   0  0  0  0  0  0  0  0  0  0  0  0
    0.0158    5.7686    0.0000 C   0  0  0  0  0  0  0  0  0  0  0  0
   -0.3180    7.2310    0.0000 C   0  0  0  0  0  0  0  0  0  0  0  0
    0.7816    8.2513    0.0000 C   0  0  0  0  0  0  0  0  0  0  0  0
    0.4478    9.7137    0.0000 C   0  0  0  0  0  0  0  0  0  0  0  0
    1.5474   10.7339    0.0000 C   0  0  0  0  0  0  0  0  0  0  0  0
    2.9807   10.2918    0.0000 O   0  0  0  0  0  0  0  0  0  0  0  0
    1.2136   12.1963    0.0000 N   0  0  0  0  0  0  0  0  0  0  0  0
    2.3132   13.2166    0.0000 C   0  0  0  0  0  0  0  0  0  0  0  0
    0.7500    3.2860    0.0000 C   0  0  0  0  0  0  0  0  0  0  0  0
    1.0838    4.7484    0.0000 C   0  0  0  0  0  0  0  0  0  0  0  0
    2.1015    2.6351    0.0000 C   0  0  0  0  0  0  0  0  0  0  0  0
    3.0367    3.8079    0.0000 O   0  0  0  0  0  0  0  0  0  0  0  0
    3.0367    1.4624    0.0000 C   0  0  0  0  0  0  0  0  0  0  0  0
    3.7867    2.7614    0.0000 C   0  0  0  0  0  0  0  0  0  0  0  0
    4.5199    1.2388    0.0000 O   0  0  0  0  0  0  0  0  0  0  0  0
  1  2  1  0
  3  2  1  1
  3  4  1  0
  4  5  1  0
  5  6  2  0
  5  7  1  0
  7  8  1  6
  7  9  1  0
  9 10  1  1
 11 10  1  6
 11 12  1  0
 12 13  1  0
 13 14  1  1
 13 15  1  0
 15 16  1  0
 13 17  1  0
 17 18  1  6
 17 19  1  0
 19 20  1  1
 19 21  1  0
  9 22  1  0
 22 23  1  6
 22 24  1  0
 24 25  1  1
 26 25  1  1
 26 27  1  0
 27 28  1  0
 28 29  1  1
 28 30  1  0
 30 31  1  0
 31 32  1  1
 32 33  1  0
 32 34  1  0
 34 35  1  0
 34 36  1  0
 31 37  1  0
 37 38  1  6
 24 39  1  0
 39 40  1  1
 39 41  1  0
 39 42  1  0
 42 43  1  0
 43 44  1  1
 43 45  1  0
 45 46  1  6
 46 47  1  0
 47 48  1  0
 48 49  1  0
 49 50  1  0
 50 51  1  0
 51 52  2  0
 51 53  1  0
 53 54  1  0
 45 55  1  0
 55 56  1  6
 55 57  1  0
 57 58  1  1
 57 59  1  0
 59 60  1  1
 59 61  1  0
 59  3  1  0
 21 11  1  0
 37 26  1  0
M  END
>  <ChEMBL_IDs>  (67) 
CHEMBL583096

>  <target_organism>  (67) 
Rattus norvegicus

>  <target_molecule_pref_name>  (67) 
None

>  <# Known Targets>  (67) 
1.0

>  <Known Targets>  (67) 
CHEMBL5306

>  <smiles>  (67) 
CC[C@H]1OC(=O)[C@H](C)[C@@H](O[C@H]2C[C@@](C)(OC)[C@@H](O)[C@H](C)O2)[C@H](C)[C@@H](O[C@@H]2O[C@H](C)C[C@H](N(C)C(C)C)[C@H]2O)[C@](C)(O)C[C@@H](C)[C@H](OCCCCC(=O)NC)[C@H](C)[C@@H](O)[C@]1(C)O

$$$$

     RDKit          2D

 63 65  0  0  0  0  0  0  0  0999 V2000
    5.6205   -1.2990    0.0000 C   0  0  0  0  0  0  0  0  0  0  0  0
    4.8705    0.0000    0.0000 C   0  0  0  0  0  0  0  0  0  0  0  0
    3.3705    0.0000    0.0000 C   0  0  0  0  0  0  0  0  0  0  0  0
    3.0367   -1.4624    0.0000 O   0  0  0  0  0  0  0  0  0  0  0  0
    2.1015   -2.6351    0.0000 C   0  0  0  0  0  0  0  0  0  0  0  0
    3.0367   -3.8079    0.0000 O   0  0  0  0  0  0  0  0  0  0  0  0
    0.7500   -3.2860    0.0000 C   0  0  0  0  0  0  0  0  0  0  0  0
    1.3600   -4.4903    0.0000 C   0  0  0  0  0  0  0  0  0  0  0  0
   -0.7500   -3.2860    0.0000 C   0  0  0  0  0  0  0  0  0  0  0  0
   -1.0838   -4.7484    0.0000 O   0  0  0  0  0  0  0  0  0  0  0  0
    0.0158   -5.7686    0.0000 C   0  0  0  0  0  0  0  0  0  0  0  0
   -0.3180   -7.2310    0.0000 C   0  0  0  0  0  0  0  0  0  0  0  0
    0.7816   -8.2513    0.0000 C   0  0  0  0  0  0  0  0  0  0  0  0
    1.4659   -9.5861    0.0000 C   0  0  0  0  0  0  0  0  0  0  0  0
   -0.4141   -9.1570    0.0000 O   0  0  0  0  0  0  0  0  0  0  0  0
   -0.2276  -10.6453    0.0000 C   0  0  0  0  0  0  0  0  0  0  0  0
    2.2150   -7.8091    0.0000 C   0  0  0  0  0  0  0  0  0  0  0  0
    3.3145   -8.8294    0.0000 O   0  0  0  0  0  0  0  0  0  0  0  0
    4.7479   -8.3873    0.0000 C   0  0  0  0  0  0  0  0  0  0  0  0
    5.0817   -6.9249    0.0000 O   0  0  0  0  0  0  0  0  0  0  0  0
    5.8475   -9.4075    0.0000 C   0  0  0  0  0  0  0  0  0  0  0  0
    7.2808   -8.9654    0.0000 C   0  0  0  0  0  0  0  0  0  0  0  0
    7.6146   -7.5030    0.0000 O   0  0  0  0  0  0  0  0  0  0  0  0
    8.3804   -9.9856    0.0000 N   0  0  0  0  0  0  0  0  0  0  0  0
    9.8138   -9.5435    0.0000 C   0  0  0  0  0  0  0  0  0  0  0  0
    8.0466  -11.4480    0.0000 C   0  0  0  0  0  0  0  0  0  0  0  0
    9.1462  -12.4683    0.0000 C   0  0  0  0  0  0  0  0  0  0  0  0
    8.8124  -13.9307    0.0000 N   0  0  0  0  0  0  0  0  0  0  0  0
    9.9120  -14.9509    0.0000 C   0  0  0  0  0  0  0  0  0  0  0  0
    7.3791  -14.3728    0.0000 C   0  0  0  0  0  0  0  0  0  0  0  0
    2.5487   -6.3467    0.0000 C   0  0  0  0  0  0  0  0  0  0  0  0
    3.9821   -5.9046    0.0000 C   0  0  0  0  0  0  0  0  0  0  0  0
    1.4492   -5.3265    0.0000 O   0  0  0  0  0  0  0  0  0  0  0  0
   -2.1015   -2.6351    0.0000 C   0  0  0  0  0  0  0  0  0  0  0  0
   -3.0367   -3.8079    0.0000 C   0  0  0  0  0  0  0  0  0  0  0  0
   -3.0367   -1.4624    0.0000 C   0  0  0  0  0  0  0  0  0  0  0  0
   -4.3881   -2.1132    0.0000 O   0  0  0  0  0  0  0  0  0  0  0  0
   -5.6275   -1.2682    0.0000 C   0  0  0  0  0  0  0  0  0  0  0  0
   -5.5154    0.2276    0.0000 O   0  0  0  0  0  0  0  0  0  0  0  0
   -6.7548    1.0725    0.0000 C   0  0  0  0  0  0  0  0  0  0  0  0
   -6.6427    2.5684    0.0000 C   0  0  0  0  0  0  0  0  0  0  0  0
   -8.1062    0.4217    0.0000 C   0  0  0  0  0  0  0  0  0  0  0  0
   -8.2183   -1.0741    0.0000 C   0  0  0  0  0  0  0  0  0  0  0  0
   -9.5698   -1.7249    0.0000 N   0  0  0  0  0  0  0  0  0  0  0  0
  -10.8091   -0.8799    0.0000 C   0  0  0  0  0  0  0  0  0  0  0  0
   -9.6819   -3.2207    0.0000 C   0  0  0  0  0  0  0  0  0  0  0  0
   -6.9790   -1.9191    0.0000 C   0  0  0  0  0  0  0  0  0  0  0  0
   -7.0910   -3.4149    0.0000 O   0  0  0  0  0  0  0  0  0  0  0  0
   -3.3705    0.0000    0.0000 C   0  0  0  0  0  0  0  0  0  0  0  0
   -4.6098   -0.8450    0.0000 C   0  0  0  0  0  0  0  0  0  0  0  0
   -4.6098    0.8450    0.0000 O   0  0  0  0  0  0  0  0  0  0  0  0
   -3.0367    1.4624    0.0000 C   0  0  0  0  0  0  0  0  0  0  0  0
   -2.1015    2.6351    0.0000 C   0  0  0  0  0  0  0  0  0  0  0  0
   -3.0367    3.8079    0.0000 C   0  0  0  0  0  0  0  0  0  0  0  0
   -0.7500    3.2860    0.0000 C   0  0  0  0  0  0  0  0  0  0  0  0
   -1.0838    4.7484    0.0000 O   0  0  0  0  0  0  0  0  0  0  0  0
    0.7500    3.2860    0.0000 C   0  0  0  0  0  0  0  0  0  0  0  0
    1.0838    4.7484    0.0000 C   0  0  0  0  0  0  0  0  0  0  0  0
    2.1015    2.6351    0.0000 C   0  0  0  0  0  0  0  0  0  0  0  0
    3.0367    3.8079    0.0000 O   0  0  0  0  0  0  0  0  0  0  0  0
    3.0367    1.4624    0.0000 C   0  0  0  0  0  0  0  0  0  0  0  0
    3.7867    2.7614    0.0000 C   0  0  0  0  0  0  0  0  0  0  0  0
    4.5199    1.2388    0.0000 O   0  0  0  0  0  0  0  0  0  0  0  0
  1  2  1  0
  3  2  1  1
  3  4  1  0
  4  5  1  0
  5  6  2  0
  5  7  1  0
  7  8  1  6
  7  9  1  0
  9 10  1  1
 10 11  1  0
 11 12  1  0
 12 13  1  0
 13 14  1  1
 13 15  1  0
 15 16  1  0
 13 17  1  0
 17 18  1  6
 18 19  1  0
 19 20  2  0
 19 21  1  0
 21 22  1  0
 22 23  2  0
 22 24  1  0
 24 25  1  0
 24 26  1  0
 26 27  1  0
 27 28  1  0
 28 29  1  0
 28 30  1  0
 17 31  1  0
 31 32  1  1
 31 33  1  0
  9 34  1  0
 34 35  1  6
 34 36  1  0
 36 37  1  1
 37 38  1  0
 38 39  1  0
 39 40  1  0
 40 41  1  1
 40 42  1  0
 42 43  1  0
 43 44  1  1
 44 45  1  0
 44 46  1  0
 43 47  1  0
 47 48  1  6
 36 49  1  0
 49 50  1  1
 49 51  1  0
 49 52  1  0
 52 53  1  0
 53 54  1  1
 53 55  1  0
 55 56  2  0
 55 57  1  0
 57 58  1  6
 57 59  1  0
 59 60  1  1
 59 61  1  0
 61 62  1  1
 61 63  1  0
 61  3  1  0
 33 11  1  0
 47 38  1  0
M  END
>  <ChEMBL_IDs>  (68) 
CHEMBL206297

>  <target_organism>  (68) 
Plasmodium falciparum

>  <target_molecule_pref_name>  (68) 
None

>  <# Known Targets>  (68) 
1.0

>  <Known Targets>  (68) 
CHEMBL354

>  <smiles>  (68) 
CC[C@H]1OC(=O)[C@H](C)[C@@H](OC2C[C@@](C)(OC)[C@@H](OC(=O)CC(=O)N(C)CCN(C)C)[C@H](C)O2)[C@H](C)[C@@H](OC2O[C@H](C)C[C@H](N(C)C)[C@H]2O)[C@](C)(O)C[C@@H](C)C(=O)[C@H](C)[C@@H](O)[C@]1(C)O

$$$$

     RDKit          2D

 62 64  0  0  0  0  0  0  0  0999 V2000
    8.3444   -2.5981    0.0000 C   0  0  0  0  0  0  0  0  0  0  0  0
    7.5944   -1.2990    0.0000 C   0  0  0  0  0  0  0  0  0  0  0  0
    6.0944   -1.2990    0.0000 C   0  0  0  0  0  0  0  0  0  0  0  0
    5.3444   -2.5981    0.0000 O   0  0  0  0  0  0  0  0  0  0  0  0
    5.3444    0.0000    0.0000 O   0  0  0  0  0  0  0  0  0  0  0  0
    3.8444    0.0000    0.0000 C   0  0  0  0  0  0  0  0  0  0  0  0
    3.5517   -1.4712    0.0000 C   0  0  0  0  0  0  0  0  0  0  0  0
    2.7184   -2.7184    0.0000 C   0  0  0  0  0  0  0  0  0  0  0  0
    1.4712   -3.5517    0.0000 C   0  0  0  0  0  0  0  0  0  0  0  0
   -0.0000   -3.8444    0.0000 C   0  0  0  0  0  0  0  0  0  0  0  0
   -1.4712   -3.5517    0.0000 C   0  0  0  0  0  0  0  0  0  0  0  0
   -2.7184   -2.7184    0.0000 C   0  0  0  0  0  0  0  0  0  0  0  0
   -3.7790   -3.7790    0.0000 C   0  0  0  0  0  0  0  0  0  0  0  0
   -3.5517   -1.4712    0.0000 O   0  0  0  0  0  0  0  0  0  0  0  0
   -3.8444    0.0000    0.0000 C   0  0  0  0  0  0  0  0  0  0  0  0
   -5.3444    0.0000    0.0000 O   0  0  0  0  0  0  0  0  0  0  0  0
   -3.5517    1.4712    0.0000 C   0  0  0  0  0  0  0  0  0  0  0  0
   -2.7184    2.7184    0.0000 C   0  0  0  0  0  0  0  0  0  0  0  0
   -3.7790    3.7790    0.0000 O   0  0  0  0  0  0  0  0  0  0  0  0
   -5.2279    3.3908    0.0000 C   0  0  0  0  0  0  0  0  0  0  0  0
   -6.2886    4.4515    0.0000 C   0  0  0  0  0  0  0  0  0  0  0  0
   -5.6162    1.9419    0.0000 O   0  0  0  0  0  0  0  0  0  0  0  0
   -1.4712    3.5517    0.0000 C   0  0  0  0  0  0  0  0  0  0  0  0
   -2.0452    4.9376    0.0000 O   0  0  0  0  0  0  0  0  0  0  0  0
   -1.1321    6.1276    0.0000 C   0  0  0  0  0  0  0  0  0  0  0  0
    0.0000    3.8444    0.0000 C   0  0  0  0  0  0  0  0  0  0  0  0
    0.0000    5.3444    0.0000 O   0  0  0  0  0  0  0  0  0  0  0  0
    1.2990    6.0944    0.0000 C   0  0  0  0  0  0  0  0  0  0  0  0
    2.5981    5.3444    0.0000 O   0  0  0  0  0  0  0  0  0  0  0  0
    3.8971    6.0944    0.0000 C   0  0  0  0  0  0  0  0  0  0  0  0
    5.1962    5.3444    0.0000 C   0  0  0  0  0  0  0  0  0  0  0  0
    3.8971    7.5944    0.0000 C   0  0  0  0  0  0  0  0  0  0  0  0
    5.1962    8.3444    0.0000 O   0  0  0  0  0  0  0  0  0  0  0  0
    6.4952    7.5944    0.0000 C   0  0  0  0  0  0  0  0  0  0  0  0
    6.4952    6.0944    0.0000 C   0  0  0  0  0  0  0  0  0  0  0  0
    7.7942    5.3444    0.0000 C   0  0  0  0  0  0  0  0  0  0  0  0
    8.7584    4.1953    0.0000 C   0  0  0  0  0  0  0  0  0  0  0  0
    6.8300    4.1953    0.0000 O   0  0  0  0  0  0  0  0  0  0  0  0
    9.0933    6.0944    0.0000 C   0  0  0  0  0  0  0  0  0  0  0  0
   10.3923    5.3444    0.0000 O   0  0  0  0  0  0  0  0  0  0  0  0
   11.6913    6.0944    0.0000 C   0  0  0  0  0  0  0  0  0  0  0  0
   11.6913    7.5944    0.0000 O   0  0  0  0  0  0  0  0  0  0  0  0
   12.9904    5.3444    0.0000 C   0  0  0  0  0  0  0  0  0  0  0  0
   14.2894    6.0944    0.0000 C   0  0  0  0  0  0  0  0  0  0  0  0
   15.5885    5.3444    0.0000 C   0  0  0  0  0  0  0  0  0  0  0  0
   14.2894    7.5944    0.0000 C   0  0  0  0  0  0  0  0  0  0  0  0
    9.0933    7.5944    0.0000 C   0  0  0  0  0  0  0  0  0  0  0  0
   10.3923    8.3444    0.0000 C   0  0  0  0  0  0  0  0  0  0  0  0
    7.7942    8.3444    0.0000 O   0  0  0  0  0  0  0  0  0  0  0  0
    2.5981    8.3444    0.0000 C   0  0  0  0  0  0  0  0  0  0  0  0
    2.5981    9.8444    0.0000 N   0  0  0  0  0  0  0  0  0  0  0  0
    3.8971   10.5944    0.0000 C   0  0  0  0  0  0  0  0  0  0  0  0
    1.2990   10.5944    0.0000 C   0  0  0  0  0  0  0  0  0  0  0  0
    1.2990    7.5944    0.0000 C   0  0  0  0  0  0  0  0  0  0  0  0
    0.0000    8.3444    0.0000 O   0  0  0  0  0  0  0  0  0  0  0  0
    1.4712    3.5517    0.0000 C   0  0  0  0  0  0  0  0  0  0  0  0
    2.0452    4.9376    0.0000 C   0  0  0  0  0  0  0  0  0  0  0  0
    3.5324    5.1333    0.0000 C   0  0  0  0  0  0  0  0  0  0  0  0
    4.4247    6.3391    0.0000 O   0  0  0  0  0  0  0  0  0  0  0  0
    2.7184    2.7184    0.0000 C   0  0  0  0  0  0  0  0  0  0  0  0
    3.5517    1.4712    0.0000 C   0  0  0  0  0  0  0  0  0  0  0  0
    4.9376    2.0452    0.0000 C   0  0  0  0  0  0  0  0  0  0  0  0
  1  2  1  0
  2  3  1  0
  3  4  2  0
  3  5  1  0
  6  5  1  1
  6  7  1  0
  7  8  2  0
  8  9  1  0
  9 10  2  0
 10 11  1  0
 11 12  1  0
 12 13  1  1
 12 14  1  0
 14 15  1  0
 15 16  2  0
 15 17  1  0
 17 18  1  0
 18 19  1  1
 19 20  1  0
 20 21  1  0
 20 22  2  0
 18 23  1  0
 23 24  1  6
 24 25  1  0
 23 26  1  0
 26 27  1  1
 28 27  1  1
 28 29  1  0
 29 30  1  0
 30 31  1  1
 30 32  1  0
 32 33  1  6
 34 33  1  6
 34 35  1  0
 35 36  1  0
 36 37  1  1
 36 38  1  0
 36 39  1  0
 39 40  1  6
 40 41  1  0
 41 42  2  0
 41 43  1  0
 43 44  1  0
 44 45  1  0
 44 46  1  0
 39 47  1  0
 47 48  1  1
 47 49  1  0
 32 50  1  0
 50 51  1  1
 51 52  1  0
 51 53  1  0
 50 54  1  0
 54 55  1  6
 26 56  1  0
 56 57  1  1
 57 58  1  0
 58 59  2  0
 56 60  1  0
 60 61  1  0
 61 62  1  1
 61  6  1  0
 54 28  1  0
 49 34  1  0
M  END
>  <ChEMBL_IDs>  (69) 
CHEMBL3251862

>  <target_organism>  (69) 
None

>  <target_molecule_pref_name>  (69) 
None

>  <# Known Targets>  (69) 
1.0

>  <Known Targets>  (69) 
CHEMBL612545

>  <smiles>  (69) 
CCC(=O)O[C@H]1/C=C/C=C/C[C@@H](C)OC(=O)C[C@@H](OC(C)=O)[C@H](OC)[C@@H](O[C@@H]2O[C@H](C)[C@@H](O[C@H]3C[C@@](C)(O)[C@@H](OC(=O)CC(C)C)[C@H](C)O3)[C@H](N(C)C)[C@H]2O)[C@@H](CC=O)C[C@H]1C

$$$$

     RDKit          2D

 64 66  0  0  0  0  0  0  0  0999 V2000
   18.4042   -4.8111    0.0000 C   0  0  0  0  0  0  0  0  0  0  0  0
   17.0184   -4.2371    0.0000 C   0  0  0  0  0  0  0  0  0  0  0  0
   16.8226   -2.7499    0.0000 C   0  0  0  0  0  0  0  0  0  0  0  0
   15.4367   -2.1759    0.0000 C   0  0  0  0  0  0  0  0  0  0  0  0
   14.2467   -3.0890    0.0000 O   0  0  0  0  0  0  0  0  0  0  0  0
   15.2410   -0.6887    0.0000 O   0  0  0  0  0  0  0  0  0  0  0  0
   13.8551   -0.1147    0.0000 C   0  0  0  0  0  0  0  0  0  0  0  0
   12.6651   -1.0279    0.0000 C   0  0  0  0  0  0  0  0  0  0  0  0
   12.8609   -2.5150    0.0000 C   0  0  0  0  0  0  0  0  0  0  0  0
   11.2793   -0.4538    0.0000 O   0  0  0  0  0  0  0  0  0  0  0  0
   11.0835    1.0333    0.0000 C   0  0  0  0  0  0  0  0  0  0  0  0
    9.6977    1.6074    0.0000 O   0  0  0  0  0  0  0  0  0  0  0  0
    8.5076    0.6942    0.0000 C   0  0  0  0  0  0  0  0  0  0  0  0
    7.1218    1.2682    0.0000 C   0  0  0  0  0  0  0  0  0  0  0  0
    6.9260    2.7554    0.0000 N   0  0  0  0  0  0  0  0  0  0  0  0
    8.1161    3.6686    0.0000 C   0  0  0  0  0  0  0  0  0  0  0  0
    6.2853    3.2296    0.0000 C   0  0  0  0  0  0  0  0  0  0  0  0
    5.9318    0.3551    0.0000 C   0  0  0  0  0  0  0  0  0  0  0  0
    4.5460    0.9291    0.0000 O   0  0  0  0  0  0  0  0  0  0  0  0
    4.3502    2.4163    0.0000 C   0  0  0  0  0  0  0  0  0  0  0  0
    3.1445    3.3086    0.0000 O   0  0  0  0  0  0  0  0  0  0  0  0
    5.5402    3.3294    0.0000 C   0  0  0  0  0  0  0  0  0  0  0  0
    5.3444    4.8166    0.0000 C   0  0  0  0  0  0  0  0  0  0  0  0
    6.5345    5.7298    0.0000 C   0  0  0  0  0  0  0  0  0  0  0  0
    7.9203    5.1557    0.0000 O   0  0  0  0  0  0  0  0  0  0  0  0
    6.3387    7.2169    0.0000 O   0  0  0  0  0  0  0  0  0  0  0  0
    6.1276   -1.1321    0.0000 C   0  0  0  0  0  0  0  0  0  0  0  0
    4.9376   -2.0452    0.0000 O   0  0  0  0  0  0  0  0  0  0  0  0
    3.5517   -1.4712    0.0000 C   0  0  0  0  0  0  0  0  0  0  0  0
    3.8444    0.0000    0.0000 C   0  0  0  0  0  0  0  0  0  0  0  0
    5.3444    0.0000    0.0000 O   0  0  0  0  0  0  0  0  0  0  0  0
    6.3864   -1.0790    0.0000 C   0  0  0  0  0  0  0  0  0  0  0  0
    3.5517    1.4712    0.0000 C   0  0  0  0  0  0  0  0  0  0  0  0
    4.7575    2.3635    0.0000 O   0  0  0  0  0  0  0  0  0  0  0  0
    2.7184    2.7184    0.0000 C   0  0  0  0  0  0  0  0  0  0  0  0
    1.4712    3.5517    0.0000 C   0  0  0  0  0  0  0  0  0  0  0  0
    2.0452    4.9376    0.0000 O   0  0  0  0  0  0  0  0  0  0  0  0
    0.0000    3.8444    0.0000 O   0  0  0  0  0  0  0  0  0  0  0  0
   -1.4712    3.5517    0.0000 C   0  0  0  0  0  0  0  0  0  0  0  0
   -2.0452    4.9376    0.0000 C   0  0  0  0  0  0  0  0  0  0  0  0
   -2.7184    2.7184    0.0000 C   0  0  0  0  0  0  0  0  0  0  0  0
   -3.5517    1.4712    0.0000 C   0  0  0  0  0  0  0  0  0  0  0  0
   -3.8444    0.0000    0.0000 C   0  0  0  0  0  0  0  0  0  0  0  0
   -3.5517   -1.4712    0.0000 C   0  0  0  0  0  0  0  0  0  0  0  0
   -2.7184   -2.7184    0.0000 C   0  0  0  0  0  0  0  0  0  0  0  0
   -1.4712   -3.5517    0.0000 C   0  0  0  0  0  0  0  0  0  0  0  0
   -2.0452   -4.9376    0.0000 O   0  0  0  0  0  0  0  0  0  0  0  0
   -3.5324   -5.1333    0.0000 C   0  0  0  0  0  0  0  0  0  0  0  0
   -4.1064   -6.5192    0.0000 C   0  0  0  0  0  0  0  0  0  0  0  0
   -4.4455   -3.9433    0.0000 O   0  0  0  0  0  0  0  0  0  0  0  0
   -0.0000   -3.8444    0.0000 C   0  0  0  0  0  0  0  0  0  0  0  0
   -0.0000   -5.3444    0.0000 C   0  0  0  0  0  0  0  0  0  0  0  0
    1.4712   -3.5517    0.0000 C   0  0  0  0  0  0  0  0  0  0  0  0
    2.7184   -2.7184    0.0000 C   0  0  0  0  0  0  0  0  0  0  0  0
    3.7790   -3.7790    0.0000 C   0  0  0  0  0  0  0  0  0  0  0  0
    3.3908   -5.2279    0.0000 C   0  0  0  0  0  0  0  0  0  0  0  0
    4.4515   -6.2886    0.0000 O   0  0  0  0  0  0  0  0  0  0  0  0
    7.5134   -1.7061    0.0000 O   0  0  0  0  0  0  0  0  0  0  0  0
    8.7034   -0.7929    0.0000 C   0  0  0  0  0  0  0  0  0  0  0  0
   10.0893   -1.3670    0.0000 C   0  0  0  0  0  0  0  0  0  0  0  0
   12.2735    1.9465    0.0000 C   0  0  0  0  0  0  0  0  0  0  0  0
   13.6593    1.3725    0.0000 C   0  0  0  0  0  0  0  0  0  0  0  0
   13.9840    2.8369    0.0000 C   0  0  0  0  0  0  0  0  0  0  0  0
   15.1579    1.3070    0.0000 O   0  0  0  0  0  0  0  0  0  0  0  0
  1  2  1  0
  2  3  1  0
  3  4  1  0
  4  5  2  0
  4  6  1  0
  7  6  1  1
  7  8  1  0
  8  9  1  6
  8 10  1  0
 10 11  1  0
 11 12  1  1
 13 12  1  6
 13 14  1  0
 14 15  1  1
 15 16  1  0
 15 17  1  0
 14 18  1  0
 18 19  1  6
 19 20  1  0
 20 21  2  0
 20 22  1  0
 22 23  1  0
 23 24  1  0
 24 25  2  0
 24 26  1  0
 18 27  1  0
 27 28  1  1
 29 28  1  1
 29 30  1  0
 30 31  1  6
 31 32  1  0
 30 33  1  0
 33 34  1  1
 33 35  1  0
 35 36  1  0
 36 37  2  0
 36 38  1  0
 38 39  1  0
 39 40  1  1
 39 41  1  0
 41 42  1  0
 42 43  2  0
 43 44  1  0
 44 45  2  0
 45 46  1  0
 46 47  1  1
 47 48  1  0
 48 49  1  0
 48 50  2  0
 46 51  1  0
 51 52  1  1
 51 53  1  0
 53 54  1  0
 54 55  1  1
 55 56  1  0
 56 57  2  0
 27 58  1  0
 58 59  1  0
 59 60  1  1
 11 61  1  0
 61 62  1  0
 62 63  1  6
 62 64  1  0
 62  7  1  0
 59 13  1  0
 54 29  1  0
M  END
>  <ChEMBL_IDs>  (70) 
CHEMBL3244607

>  <target_organism>  (70) 
None

>  <target_molecule_pref_name>  (70) 
None

>  <# Known Targets>  (70) 
1.0

>  <Known Targets>  (70) 
CHEMBL612545

>  <smiles>  (70) 
CCCC(=O)O[C@H]1[C@H](C)O[C@@H](O[C@H]2[C@H](N(C)C)[C@@H](OC(=O)CCC(=O)O)[C@H](O[C@@H]3[C@@H](OC)[C@H](O)CC(=O)O[C@H](C)C/C=C/C=C/[C@H](OC(C)=O)[C@H](C)C[C@@H]3CC=O)O[C@@H]2C)C[C@@]1(C)O

$$$$

     RDKit          2D

 63 65  0  0  0  0  0  0  0  0999 V2000
    5.7513   11.6784    0.0000 C   0  0  0  0  0  0  0  0  0  0  0  0
    5.9471   10.1913    0.0000 C   0  0  0  0  0  0  0  0  0  0  0  0
    7.3329    9.6172    0.0000 C   0  0  0  0  0  0  0  0  0  0  0  0
    7.5287    8.1301    0.0000 C   0  0  0  0  0  0  0  0  0  0  0  0
    6.3387    7.2169    0.0000 O   0  0  0  0  0  0  0  0  0  0  0  0
    8.9145    7.5560    0.0000 O   0  0  0  0  0  0  0  0  0  0  0  0
    9.1103    6.0689    0.0000 C   0  0  0  0  0  0  0  0  0  0  0  0
    7.9203    5.1557    0.0000 C   0  0  0  0  0  0  0  0  0  0  0  0
    6.5345    5.7298    0.0000 C   0  0  0  0  0  0  0  0  0  0  0  0
    8.1161    3.6686    0.0000 O   0  0  0  0  0  0  0  0  0  0  0  0
    9.5019    3.0945    0.0000 C   0  0  0  0  0  0  0  0  0  0  0  0
    9.6977    1.6074    0.0000 O   0  0  0  0  0  0  0  0  0  0  0  0
    8.5076    0.6942    0.0000 C   0  0  0  0  0  0  0  0  0  0  0  0
    8.7034   -0.7929    0.0000 C   0  0  0  0  0  0  0  0  0  0  0  0
   10.0893   -1.3670    0.0000 N   0  0  0  0  0  0  0  0  0  0  0  0
   11.2793   -0.4538    0.0000 C   0  0  0  0  0  0  0  0  0  0  0  0
   10.2850   -2.8541    0.0000 C   0  0  0  0  0  0  0  0  0  0  0  0
    7.5134   -1.7061    0.0000 C   0  0  0  0  0  0  0  0  0  0  0  0
    7.7092   -3.1933    0.0000 O   0  0  0  0  0  0  0  0  0  0  0  0
    6.5192   -4.1064    0.0000 C   0  0  0  0  0  0  0  0  0  0  0  0
    6.7150   -5.5936    0.0000 C   0  0  0  0  0  0  0  0  0  0  0  0
    5.1333   -3.5324    0.0000 O   0  0  0  0  0  0  0  0  0  0  0  0
    6.1276   -1.1321    0.0000 C   0  0  0  0  0  0  0  0  0  0  0  0
    4.9376   -2.0452    0.0000 O   0  0  0  0  0  0  0  0  0  0  0  0
    3.5517   -1.4712    0.0000 C   0  0  0  0  0  0  0  0  0  0  0  0
    3.8444    0.0000    0.0000 C   0  0  0  0  0  0  0  0  0  0  0  0
    5.3444   -0.0000    0.0000 O   0  0  0  0  0  0  0  0  0  0  0  0
    6.0944    1.2990    0.0000 C   0  0  0  0  0  0  0  0  0  0  0  0
    3.5517    1.4712    0.0000 C   0  0  0  0  0  0  0  0  0  0  0  0
    4.9376    2.0452    0.0000 O   0  0  0  0  0  0  0  0  0  0  0  0
    5.1333    3.5324    0.0000 C   0  0  0  0  0  0  0  0  0  0  0  0
    6.5192    4.1064    0.0000 C   0  0  0  0  0  0  0  0  0  0  0  0
    3.9433    4.4455    0.0000 O   0  0  0  0  0  0  0  0  0  0  0  0
    2.7184    2.7184    0.0000 C   0  0  0  0  0  0  0  0  0  0  0  0
    1.4712    3.5517    0.0000 C   0  0  0  0  0  0  0  0  0  0  0  0
    2.0452    4.9376    0.0000 O   0  0  0  0  0  0  0  0  0  0  0  0
    0.0000    3.8444    0.0000 O   0  0  0  0  0  0  0  0  0  0  0  0
   -1.4712    3.5517    0.0000 C   0  0  0  0  0  0  0  0  0  0  0  0
   -2.0452    4.9376    0.0000 C   0  0  0  0  0  0  0  0  0  0  0  0
   -2.7184    2.7184    0.0000 C   0  0  0  0  0  0  0  0  0  0  0  0
   -3.5517    1.4712    0.0000 C   0  0  0  0  0  0  0  0  0  0  0  0
   -3.8444    0.0000    0.0000 C   0  0  0  0  0  0  0  0  0  0  0  0
   -3.5517   -1.4712    0.0000 C   0  0  0  0  0  0  0  0  0  0  0  0
   -2.7184   -2.7184    0.0000 C   0  0  0  0  0  0  0  0  0  0  0  0
   -1.4712   -3.5517    0.0000 C   0  0  0  0  0  0  0  0  0  0  0  0
   -2.0452   -4.9376    0.0000 O   0  0  0  0  0  0  0  0  0  0  0  0
   -3.5324   -5.1333    0.0000 C   0  0  0  0  0  0  0  0  0  0  0  0
   -4.1064   -6.5192    0.0000 C   0  0  0  0  0  0  0  0  0  0  0  0
   -4.4455   -3.9433    0.0000 O   0  0  0  0  0  0  0  0  0  0  0  0
   -0.0000   -3.8444    0.0000 C   0  0  0  0  0  0  0  0  0  0  0  0
   -0.0000   -5.3444    0.0000 C   0  0  0  0  0  0  0  0  0  0  0  0
    1.4712   -3.5517    0.0000 C   0  0  0  0  0  0  0  0  0  0  0  0
    2.7184   -2.7184    0.0000 C   0  0  0  0  0  0  0  0  0  0  0  0
    3.7790   -3.7790    0.0000 C   0  0  0  0  0  0  0  0  0  0  0  0
    3.3908   -5.2279    0.0000 C   0  0  0  0  0  0  0  0  0  0  0  0
    4.4515   -6.2886    0.0000 O   0  0  0  0  0  0  0  0  0  0  0  0
    5.9318    0.3551    0.0000 O   0  0  0  0  0  0  0  0  0  0  0  0
    7.1218    1.2682    0.0000 C   0  0  0  0  0  0  0  0  0  0  0  0
    6.9260    2.7554    0.0000 C   0  0  0  0  0  0  0  0  0  0  0  0
   10.6919    4.0077    0.0000 C   0  0  0  0  0  0  0  0  0  0  0  0
   10.4961    5.4948    0.0000 C   0  0  0  0  0  0  0  0  0  0  0  0
   11.9947    5.4294    0.0000 C   0  0  0  0  0  0  0  0  0  0  0  0
   10.8208    6.9593    0.0000 O   0  0  0  0  0  0  0  0  0  0  0  0
  1  2  1  0
  2  3  1  0
  3  4  1  0
  4  5  2  0
  4  6  1  0
  7  6  1  6
  7  8  1  0
  8  9  1  1
  8 10  1  0
 10 11  1  0
 11 12  1  6
 13 12  1  1
 13 14  1  0
 14 15  1  6
 15 16  1  0
 15 17  1  0
 14 18  1  0
 18 19  1  1
 19 20  1  0
 20 21  1  0
 20 22  2  0
 18 23  1  0
 23 24  1  6
 25 24  1  1
 25 26  1  0
 26 27  1  6
 27 28  1  0
 26 29  1  0
 29 30  1  1
 30 31  1  0
 31 32  1  0
 31 33  2  0
 29 34  1  0
 34 35  1  0
 35 36  2  0
 35 37  1  0
 37 38  1  0
 38 39  1  1
 38 40  1  0
 40 41  1  0
 41 42  2  0
 42 43  1  0
 43 44  2  0
 44 45  1  0
 45 46  1  1
 46 47  1  0
 47 48  1  0
 47 49  2  0
 45 50  1  0
 50 51  1  1
 50 52  1  0
 52 53  1  0
 53 54  1  1
 54 55  1  0
 55 56  2  0
 23 57  1  0
 57 58  1  0
 58 59  1  6
 11 60  1  0
 60 61  1  0
 61 62  1  1
 61 63  1  0
 61  7  1  0
 58 13  1  0
 53 25  1  0
M  END
>  <ChEMBL_IDs>  (71) 
CHEMBL3244595

>  <target_organism>  (71) 
None

>  <target_molecule_pref_name>  (71) 
None

>  <# Known Targets>  (71) 
1.0

>  <Known Targets>  (71) 
CHEMBL612545

>  <smiles>  (71) 
CCCC(=O)O[C@H]1[C@H](C)O[C@@H](O[C@H]2[C@H](N(C)C)[C@@H](OC(C)=O)[C@H](O[C@@H]3[C@@H](OC)[C@H](OC(C)=O)CC(=O)O[C@H](C)C/C=C/C=C/[C@H](OC(C)=O)[C@H](C)C[C@@H]3CC=O)O[C@@H]2C)C[C@@]1(C)O

$$$$

     RDKit          2D

 59 61  0  0  0  0  0  0  0  0999 V2000
    5.6205   -1.2990    0.0000 C   0  0  0  0  0  0  0  0  0  0  0  0
    4.8705    0.0000    0.0000 C   0  0  0  0  0  0  0  0  0  0  0  0
    3.3705    0.0000    0.0000 C   0  0  0  0  0  0  0  0  0  0  0  0
    3.0367   -1.4624    0.0000 O   0  0  0  0  0  0  0  0  0  0  0  0
    2.1015   -2.6351    0.0000 C   0  0  0  0  0  0  0  0  0  0  0  0
    3.0367   -3.8079    0.0000 O   0  0  0  0  0  0  0  0  0  0  0  0
    0.7500   -3.2860    0.0000 C   0  0  0  0  0  0  0  0  0  0  0  0
    1.3600   -4.4903    0.0000 C   0  0  0  0  0  0  0  0  0  0  0  0
   -0.7500   -3.2860    0.0000 C   0  0  0  0  0  0  0  0  0  0  0  0
   -1.0838   -4.7484    0.0000 O   0  0  0  0  0  0  0  0  0  0  0  0
    0.0158   -5.7686    0.0000 C   0  0  0  0  0  0  0  0  0  0  0  0
   -0.3180   -7.2310    0.0000 C   0  0  0  0  0  0  0  0  0  0  0  0
    0.7816   -8.2513    0.0000 C   0  0  0  0  0  0  0  0  0  0  0  0
    1.4659   -9.5861    0.0000 C   0  0  0  0  0  0  0  0  0  0  0  0
   -0.4141   -9.1570    0.0000 O   0  0  0  0  0  0  0  0  0  0  0  0
   -0.2276  -10.6453    0.0000 C   0  0  0  0  0  0  0  0  0  0  0  0
    2.2150   -7.8091    0.0000 C   0  0  0  0  0  0  0  0  0  0  0  0
    3.3145   -8.8294    0.0000 O   0  0  0  0  0  0  0  0  0  0  0  0
    2.5487   -6.3467    0.0000 C   0  0  0  0  0  0  0  0  0  0  0  0
    3.9821   -5.9046    0.0000 C   0  0  0  0  0  0  0  0  0  0  0  0
    1.4492   -5.3265    0.0000 O   0  0  0  0  0  0  0  0  0  0  0  0
   -2.1015   -2.6351    0.0000 C   0  0  0  0  0  0  0  0  0  0  0  0
   -3.0367   -3.8079    0.0000 C   0  0  0  0  0  0  0  0  0  0  0  0
   -3.0367   -1.4624    0.0000 C   0  0  0  0  0  0  0  0  0  0  0  0
   -4.3881   -2.1132    0.0000 O   0  0  0  0  0  0  0  0  0  0  0  0
   -5.6275   -1.2682    0.0000 C   0  0  0  0  0  0  0  0  0  0  0  0
   -5.5154    0.2276    0.0000 O   0  0  0  0  0  0  0  0  0  0  0  0
   -6.7548    1.0725    0.0000 C   0  0  0  0  0  0  0  0  0  0  0  0
   -6.6427    2.5684    0.0000 C   0  0  0  0  0  0  0  0  0  0  0  0
   -8.1062    0.4217    0.0000 C   0  0  0  0  0  0  0  0  0  0  0  0
   -8.2183   -1.0741    0.0000 C   0  0  0  0  0  0  0  0  0  0  0  0
   -9.5698   -1.7249    0.0000 N   0  0  0  0  0  0  0  0  0  0  0  0
  -10.8091   -0.8799    0.0000 C   0  0  0  0  0  0  0  0  0  0  0  0
   -9.6819   -3.2207    0.0000 C   0  0  0  0  0  0  0  0  0  0  0  0
  -11.0333   -3.8715    0.0000 C   0  0  0  0  0  0  0  0  0  0  0  0
   -8.4425   -4.0657    0.0000 C   0  0  0  0  0  0  0  0  0  0  0  0
   -6.9790   -1.9191    0.0000 C   0  0  0  0  0  0  0  0  0  0  0  0
   -7.0910   -3.4149    0.0000 O   0  0  0  0  0  0  0  0  0  0  0  0
   -3.3705    0.0000    0.0000 C   0  0  0  0  0  0  0  0  0  0  0  0
   -4.6098   -0.8450    0.0000 C   0  0  0  0  0  0  0  0  0  0  0  0
   -4.6098    0.8450    0.0000 O   0  0  0  0  0  0  0  0  0  0  0  0
   -3.0367    1.4624    0.0000 C   0  0  0  0  0  0  0  0  0  0  0  0
   -2.1015    2.6351    0.0000 C   0  0  0  0  0  0  0  0  0  0  0  0
   -3.0367    3.8079    0.0000 C   0  0  0  0  0  0  0  0  0  0  0  0
   -0.7500    3.2860    0.0000 C   0  0  0  0  0  0  0  0  0  0  0  0
   -1.0838    4.7484    0.0000 O   0  0  0  0  0  0  0  0  0  0  0  0
    0.0158    5.7686    0.0000 C   0  0  0  0  0  0  0  0  0  0  0  0
   -0.3180    7.2310    0.0000 C   0  0  0  0  0  0  0  0  0  0  0  0
    0.7816    8.2513    0.0000 N   0  0  0  0  0  0  0  0  0  0  0  0
    0.4478    9.7137    0.0000 C   0  0  0  0  0  0  0  0  0  0  0  0
    1.5474   10.7339    0.0000 C   0  0  0  0  0  0  0  0  0  0  0  0
   -0.9855   10.1558    0.0000 C   0  0  0  0  0  0  0  0  0  0  0  0
    0.7500    3.2860    0.0000 C   0  0  0  0  0  0  0  0  0  0  0  0
    1.0838    4.7484    0.0000 C   0  0  0  0  0  0  0  0  0  0  0  0
    2.1015    2.6351    0.0000 C   0  0  0  0  0  0  0  0  0  0  0  0
    3.0367    3.8079    0.0000 O   0  0  0  0  0  0  0  0  0  0  0  0
    3.0367    1.4624    0.0000 C   0  0  0  0  0  0  0  0  0  0  0  0
    3.7867    2.7614    0.0000 C   0  0  0  0  0  0  0  0  0  0  0  0
    4.5199    1.2388    0.0000 O   0  0  0  0  0  0  0  0  0  0  0  0
  1  2  1  0
  3  2  1  1
  3  4  1  0
  4  5  1  0
  5  6  2  0
  5  7  1  0
  7  8  1  6
  7  9  1  0
  9 10  1  1
 11 10  1  6
 11 12  1  0
 12 13  1  0
 13 14  1  1
 13 15  1  0
 15 16  1  0
 13 17  1  0
 17 18  1  6
 17 19  1  0
 19 20  1  1
 19 21  1  0
  9 22  1  0
 22 23  1  6
 22 24  1  0
 24 25  1  1
 26 25  1  1
 26 27  1  0
 27 28  1  0
 28 29  1  1
 28 30  1  0
 30 31  1  0
 31 32  1  1
 32 33  1  0
 32 34  1  0
 34 35  1  0
 34 36  1  0
 31 37  1  0
 37 38  1  6
 24 39  1  0
 39 40  1  1
 39 41  1  0
 39 42  1  0
 42 43  1  0
 43 44  1  1
 43 45  1  0
 45 46  1  6
 46 47  1  0
 47 48  1  0
 48 49  1  0
 49 50  1  0
 50 51  1  0
 50 52  1  0
 45 53  1  0
 53 54  1  6
 53 55  1  0
 55 56  1  1
 55 57  1  0
 57 58  1  1
 57 59  1  0
 57  3  1  0
 21 11  1  0
 37 26  1  0
M  END
>  <ChEMBL_IDs>  (72) 
CHEMBL1269445

>  <target_organism>  (72) 
nan

>  <target_molecule_pref_name>  (72) 
None

>  <# Known Targets>  (72) 
1.0

>  <Known Targets>  (72) 
CHEMBL3879801

>  <smiles>  (72) 
CC[C@H]1OC(=O)[C@H](C)[C@@H](O[C@H]2C[C@@](C)(OC)[C@@H](O)[C@H](C)O2)[C@H](C)[C@@H](O[C@@H]2O[C@H](C)C[C@H](N(C)C(C)C)[C@H]2O)[C@](C)(O)C[C@@H](C)[C@H](OCCNC(C)C)[C@H](C)[C@@H](O)[C@]1(C)O

$$$$

     RDKit          2D

 62 64  0  0  0  0  0  0  0  0999 V2000
    5.8573   -1.2990    0.0000 C   0  0  0  0  0  0  0  0  0  0  0  0
    5.1073    0.0000    0.0000 C   0  0  0  0  0  0  0  0  0  0  0  0
    3.6073    0.0000    0.0000 C   0  0  0  0  0  0  0  0  0  0  0  0
    3.2954    1.4672    0.0000 O   0  0  0  0  0  0  0  0  0  0  0  0
    2.4138    2.6807    0.0000 C   0  0  0  0  0  0  0  0  0  0  0  0
    3.4175    3.7955    0.0000 O   0  0  0  0  0  0  0  0  0  0  0  0
    1.1147    3.4307    0.0000 C   0  0  0  0  0  0  0  0  0  0  0  0
    1.8302    4.5756    0.0000 C   0  0  0  0  0  0  0  0  0  0  0  0
   -0.3771    3.5875    0.0000 C   0  0  0  0  0  0  0  0  0  0  0  0
   -0.5339    5.0793    0.0000 O   0  0  0  0  0  0  0  0  0  0  0  0
    0.6797    5.9610    0.0000 C   0  0  0  0  0  0  0  0  0  0  0  0
    0.5229    7.4528    0.0000 C   0  0  0  0  0  0  0  0  0  0  0  0
    1.7364    8.3345    0.0000 C   0  0  0  0  0  0  0  0  0  0  0  0
    2.5752    9.5780    0.0000 C   0  0  0  0  0  0  0  0  0  0  0  0
    0.6574    9.3764    0.0000 O   0  0  0  0  0  0  0  0  0  0  0  0
    1.0203   10.8319    0.0000 C   0  0  0  0  0  0  0  0  0  0  0  0
    3.1067    7.7244    0.0000 C   0  0  0  0  0  0  0  0  0  0  0  0
    4.3202    8.6060    0.0000 O   0  0  0  0  0  0  0  0  0  0  0  0
    3.2635    6.2326    0.0000 C   0  0  0  0  0  0  0  0  0  0  0  0
    4.6338    5.6225    0.0000 C   0  0  0  0  0  0  0  0  0  0  0  0
    2.0500    5.3509    0.0000 O   0  0  0  0  0  0  0  0  0  0  0  0
   -1.8037    3.1240    0.0000 C   0  0  0  0  0  0  0  0  0  0  0  0
   -2.5537    4.4231    0.0000 C   0  0  0  0  0  0  0  0  0  0  0  0
   -2.9184    2.1203    0.0000 C   0  0  0  0  0  0  0  0  0  0  0  0
   -4.1319    3.0020    0.0000 O   0  0  0  0  0  0  0  0  0  0  0  0
   -5.5022    2.3919    0.0000 C   0  0  0  0  0  0  0  0  0  0  0  0
   -6.7157    3.2736    0.0000 O   0  0  0  0  0  0  0  0  0  0  0  0
   -8.0861    2.6635    0.0000 C   0  0  0  0  0  0  0  0  0  0  0  0
   -9.2996    3.5451    0.0000 C   0  0  0  0  0  0  0  0  0  0  0  0
   -8.2428    1.1717    0.0000 C   0  0  0  0  0  0  0  0  0  0  0  0
   -7.0293    0.2900    0.0000 C   0  0  0  0  0  0  0  0  0  0  0  0
   -7.1861   -1.2018    0.0000 N   0  0  0  0  0  0  0  0  0  0  0  0
   -8.5564   -1.8119    0.0000 C   0  0  0  0  0  0  0  0  0  0  0  0
   -5.9726   -2.0835    0.0000 C   0  0  0  0  0  0  0  0  0  0  0  0
   -5.6590    0.9001    0.0000 C   0  0  0  0  0  0  0  0  0  0  0  0
   -5.0760    0.3564    0.0000 O   0  0  0  0  0  0  0  0  0  0  0  0
   -3.5285    0.7500    0.0000 C   0  0  0  0  0  0  0  0  0  0  0  0
   -4.2257    0.3635    0.0000 C   0  0  0  0  0  0  0  0  0  0  0  0
   -4.5705    1.8290    0.0000 O   0  0  0  0  0  0  0  0  0  0  0  0
   -3.5285   -0.7500    0.0000 C   0  0  0  0  0  0  0  0  0  0  0  0
   -2.9184   -2.1203    0.0000 C   0  0  0  0  0  0  0  0  0  0  0  0
   -4.1319   -3.0020    0.0000 C   0  0  0  0  0  0  0  0  0  0  0  0
   -1.8037   -3.1240    0.0000 C   0  0  0  0  0  0  0  0  0  0  0  0
   -0.3771   -3.5875    0.0000 N   0  0  0  0  0  0  0  0  0  0  0  0
   -0.5339   -5.0793    0.0000 C   0  0  0  0  0  0  0  0  0  0  0  0
   -1.9042   -5.6894    0.0000 C   0  0  0  0  0  0  0  0  0  0  0  0
   -2.0610   -7.1812    0.0000 C   0  0  0  0  0  0  0  0  0  0  0  0
   -3.4313   -7.7913    0.0000 N   0  0  0  0  0  0  0  0  0  0  0  0
   -3.5881   -9.2831    0.0000 C   0  0  0  0  0  0  0  0  0  0  0  0
   -2.3746  -10.1648    0.0000 O   0  0  0  0  0  0  0  0  0  0  0  0
   -4.9584   -9.8932    0.0000 N   0  0  0  0  0  0  0  0  0  0  0  0
   -5.1152  -11.3850    0.0000 C   0  0  0  0  0  0  0  0  0  0  0  0
   -6.6070  -11.2282    0.0000 C   0  0  0  0  0  0  0  0  0  0  0  0
   -3.6234  -11.5418    0.0000 C   0  0  0  0  0  0  0  0  0  0  0  0
   -5.2720  -12.8768    0.0000 C   0  0  0  0  0  0  0  0  0  0  0  0
    1.1147   -3.4307    0.0000 C   0  0  0  0  0  0  0  0  0  0  0  0
    1.5782   -4.8573    0.0000 C   0  0  0  0  0  0  0  0  0  0  0  0
    2.4138   -2.6807    0.0000 C   0  0  0  0  0  0  0  0  0  0  0  0
    3.4175   -3.7955    0.0000 O   0  0  0  0  0  0  0  0  0  0  0  0
    3.2954   -1.4672    0.0000 C   0  0  0  0  0  0  0  0  0  0  0  0
    4.7726   -1.2067    0.0000 C   0  0  0  0  0  0  0  0  0  0  0  0
    4.0903   -2.7393    0.0000 O   0  0  0  0  0  0  0  0  0  0  0  0
  1  2  1  0
  3  2  1  6
  3  4  1  0
  4  5  1  0
  5  6  2  0
  5  7  1  0
  7  8  1  1
  7  9  1  0
  9 10  1  6
 11 10  1  1
 11 12  1  0
 12 13  1  0
 13 14  1  6
 13 15  1  0
 15 16  1  0
 13 17  1  0
 17 18  1  1
 17 19  1  0
 19 20  1  6
 19 21  1  0
  9 22  1  0
 22 23  1  1
 22 24  1  0
 24 25  1  6
 26 25  1  1
 26 27  1  0
 27 28  1  0
 28 29  1  1
 28 30  1  0
 30 31  1  0
 31 32  1  1
 32 33  1  0
 32 34  1  0
 31 35  1  0
 35 36  1  6
 24 37  1  0
 37 38  1  6
 37 39  1  0
 37 40  1  0
 40 41  1  0
 41 42  1  6
 41 43  1  0
 43 44  1  0
 44 45  1  0
 45 46  1  0
 46 47  1  0
 47 48  1  0
 48 49  1  0
 49 50  2  0
 49 51  1  0
 51 52  1  0
 52 53  1  0
 52 54  1  0
 52 55  1  0
 44 56  1  0
 56 57  1  1
 56 58  1  0
 58 59  1  6
 58 60  1  0
 60 61  1  6
 60 62  1  0
 60  3  1  0
 21 11  1  0
 35 26  1  0
M  END
>  <ChEMBL_IDs>  (73) 
CHEMBL1682717

>  <target_organism>  (73) 
Homo sapiens,None,Escherichia coli K-12

>  <target_molecule_pref_name>  (73) 
None

>  <# Known Targets>  (73) 
1.0

>  <Known Targets>  (73) 
CHEMBL364

>  <smiles>  (73) 
CC[C@H]1OC(=O)[C@H](C)[C@@H](O[C@H]2C[C@@](C)(OC)[C@@H](O)[C@H](C)O2)[C@H](C)[C@@H](O[C@@H]2O[C@H](C)C[C@H](N(C)C)[C@H]2O)[C@](C)(O)C[C@@H](C)CN(CCCNC(=O)NC(C)(C)C)[C@H](C)[C@@H](O)[C@]1(C)O

$$$$

     RDKit          2D

 61 63  0  0  0  0  0  0  0  0999 V2000
   12.3705   -5.1962    0.0000 C   0  0  0  0  0  0  0  0  0  0  0  0
   11.6205   -3.8971    0.0000 C   0  0  0  0  0  0  0  0  0  0  0  0
   10.1205   -3.8971    0.0000 N   0  0  0  0  0  0  0  0  0  0  0  0
    9.3705   -2.5981    0.0000 C   0  0  0  0  0  0  0  0  0  0  0  0
   10.1205   -1.2990    0.0000 O   0  0  0  0  0  0  0  0  0  0  0  0
    7.8705   -2.5981    0.0000 N   0  0  0  0  0  0  0  0  0  0  0  0
    7.1205   -1.2990    0.0000 C   0  0  0  0  0  0  0  0  0  0  0  0
    5.6205   -1.2990    0.0000 C   0  0  0  0  0  0  0  0  0  0  0  0
    4.8705    0.0000    0.0000 O   0  0  0  0  0  0  0  0  0  0  0  0
    3.3705    0.0000    0.0000 C   0  0  0  0  0  0  0  0  0  0  0  0
    3.0367   -1.4624    0.0000 C   0  0  0  0  0  0  0  0  0  0  0  0
    4.3881   -2.1132    0.0000 C   0  0  0  0  0  0  0  0  0  0  0  0
    2.1015   -2.6351    0.0000 C   0  0  0  0  0  0  0  0  0  0  0  0
    0.7500   -3.2860    0.0000 C   0  0  0  0  0  0  0  0  0  0  0  0
    1.8496   -4.3062    0.0000 C   0  0  0  0  0  0  0  0  0  0  0  0
    0.2020   -4.6823    0.0000 O   0  0  0  0  0  0  0  0  0  0  0  0
   -0.7500   -3.2860    0.0000 C   0  0  0  0  0  0  0  0  0  0  0  0
   -1.0838   -4.7484    0.0000 O   0  0  0  0  0  0  0  0  0  0  0  0
    0.0158   -5.7686    0.0000 C   0  0  0  0  0  0  0  0  0  0  0  0
    1.4492   -5.3265    0.0000 O   0  0  0  0  0  0  0  0  0  0  0  0
    2.5487   -6.3467    0.0000 C   0  0  0  0  0  0  0  0  0  0  0  0
    3.9821   -5.9046    0.0000 C   0  0  0  0  0  0  0  0  0  0  0  0
    2.2150   -7.8091    0.0000 C   0  0  0  0  0  0  0  0  0  0  0  0
    0.7816   -8.2513    0.0000 C   0  0  0  0  0  0  0  0  0  0  0  0
    0.4478   -9.7137    0.0000 N   0  0  0  0  0  0  0  0  0  0  0  0
    1.5474  -10.7339    0.0000 C   0  0  0  0  0  0  0  0  0  0  0  0
   -0.9855  -10.1558    0.0000 C   0  0  0  0  0  0  0  0  0  0  0  0
   -1.3193  -11.6182    0.0000 C   0  0  0  0  0  0  0  0  0  0  0  0
   -2.0851   -9.1355    0.0000 C   0  0  0  0  0  0  0  0  0  0  0  0
   -0.3180   -7.2310    0.0000 C   0  0  0  0  0  0  0  0  0  0  0  0
   -1.7513   -7.6731    0.0000 O   0  0  0  0  0  0  0  0  0  0  0  0
   -2.1015   -2.6351    0.0000 C   0  0  0  0  0  0  0  0  0  0  0  0
   -3.0367   -3.8079    0.0000 C   0  0  0  0  0  0  0  0  0  0  0  0
   -3.0367   -1.4624    0.0000 C   0  0  0  0  0  0  0  0  0  0  0  0
   -4.3881   -2.1132    0.0000 O   0  0  0  0  0  0  0  0  0  0  0  0
   -5.6275   -1.2682    0.0000 C   0  0  0  0  0  0  0  0  0  0  0  0
   -6.9790   -1.9191    0.0000 C   0  0  0  0  0  0  0  0  0  0  0  0
   -8.2183   -1.0741    0.0000 C   0  0  0  0  0  0  0  0  0  0  0  0
   -9.6719   -0.7039    0.0000 C   0  0  0  0  0  0  0  0  0  0  0  0
   -8.8352   -2.4413    0.0000 O   0  0  0  0  0  0  0  0  0  0  0  0
  -10.3278   -2.5907    0.0000 C   0  0  0  0  0  0  0  0  0  0  0  0
   -8.1062    0.4217    0.0000 C   0  0  0  0  0  0  0  0  0  0  0  0
   -9.3456    1.2667    0.0000 O   0  0  0  0  0  0  0  0  0  0  0  0
   -6.7548    1.0725    0.0000 C   0  0  0  0  0  0  0  0  0  0  0  0
   -6.6427    2.5684    0.0000 C   0  0  0  0  0  0  0  0  0  0  0  0
   -5.5154    0.2276    0.0000 O   0  0  0  0  0  0  0  0  0  0  0  0
   -3.3705    0.0000    0.0000 C   0  0  0  0  0  0  0  0  0  0  0  0
   -4.6804    0.3267    0.0000 C   0  0  0  0  0  0  0  0  0  0  0  0
   -3.0367    1.4624    0.0000 C   0  0  0  0  0  0  0  0  0  0  0  0
   -4.3881    2.1132    0.0000 O   0  0  0  0  0  0  0  0  0  0  0  0
   -2.1015    2.6351    0.0000 O   0  0  0  0  0  0  0  0  0  0  0  0
   -0.7500    3.2860    0.0000 C   0  0  0  0  0  0  0  0  0  0  0  0
   -1.0838    4.7484    0.0000 C   0  0  0  0  0  0  0  0  0  0  0  0
    0.0158    5.7686    0.0000 C   0  0  0  0  0  0  0  0  0  0  0  0
    0.7500    3.2860    0.0000 C   0  0  0  0  0  0  0  0  0  0  0  0
    0.2020    4.6823    0.0000 C   0  0  0  0  0  0  0  0  0  0  0  0
    1.8496    4.3062    0.0000 O   0  0  0  0  0  0  0  0  0  0  0  0
    2.1015    2.6351    0.0000 C   0  0  0  0  0  0  0  0  0  0  0  0
    3.0367    3.8079    0.0000 O   0  0  0  0  0  0  0  0  0  0  0  0
    3.0367    1.4624    0.0000 C   0  0  0  0  0  0  0  0  0  0  0  0
    4.3881    2.1132    0.0000 C   0  0  0  0  0  0  0  0  0  0  0  0
  1  2  1  0
  2  3  1  0
  3  4  1  0
  4  5  2  0
  4  6  1  0
  6  7  1  0
  7  8  1  0
  8  9  1  0
 10  9  1  1
 10 11  1  0
 11 12  1  6
 11 13  1  0
 13 14  1  0
 14 15  1  6
 14 16  1  0
 14 17  1  0
 17 18  1  6
 19 18  1  6
 19 20  1  0
 20 21  1  0
 21 22  1  6
 21 23  1  0
 23 24  1  0
 24 25  1  6
 25 26  1  0
 25 27  1  0
 27 28  1  0
 27 29  1  0
 24 30  1  0
 30 31  1  1
 17 32  1  0
 32 33  1  1
 32 34  1  0
 34 35  1  6
 36 35  1  1
 36 37  1  0
 37 38  1  0
 38 39  1  6
 38 40  1  0
 40 41  1  0
 38 42  1  0
 42 43  1  1
 42 44  1  0
 44 45  1  6
 44 46  1  0
 34 47  1  0
 47 48  1  1
 47 49  1  0
 49 50  2  0
 49 51  1  0
 51 52  1  0
 52 53  1  6
 53 54  1  0
 52 55  1  0
 55 56  1  6
 55 57  1  0
 55 58  1  0
 58 59  1  6
 58 60  1  0
 60 61  1  1
 60 10  1  0
 30 19  1  0
 46 36  1  0
M  END
>  <ChEMBL_IDs>  (74) 
CHEMBL1269441

>  <target_organism>  (74) 
nan

>  <target_molecule_pref_name>  (74) 
None

>  <# Known Targets>  (74) 
1.0

>  <Known Targets>  (74) 
CHEMBL3879801

>  <smiles>  (74) 
CCNC(=O)NCCO[C@H]1[C@H](C)C[C@@](C)(O)[C@H](O[C@@H]2O[C@H](C)C[C@H](N(C)C(C)C)[C@H]2O)[C@@H](C)[C@H](O[C@H]2C[C@@](C)(OC)[C@@H](O)[C@H](C)O2)[C@@H](C)C(=O)O[C@H](CC)[C@@](C)(O)[C@H](O)[C@H]1C

$$$$

     RDKit          2D

 61 63  0  0  0  0  0  0  0  0999 V2000
   12.3705   -5.1962    0.0000 C   0  0  0  0  0  0  0  0  0  0  0  0
   11.6205   -3.8971    0.0000 C   0  0  0  0  0  0  0  0  0  0  0  0
   10.1205   -3.8971    0.0000 N   0  0  0  0  0  0  0  0  0  0  0  0
    9.3705   -2.5981    0.0000 C   0  0  0  0  0  0  0  0  0  0  0  0
   10.1205   -1.2990    0.0000 S   0  0  0  0  0  0  0  0  0  0  0  0
    7.8705   -2.5981    0.0000 N   0  0  0  0  0  0  0  0  0  0  0  0
    7.1205   -1.2990    0.0000 C   0  0  0  0  0  0  0  0  0  0  0  0
    5.6205   -1.2990    0.0000 C   0  0  0  0  0  0  0  0  0  0  0  0
    4.8705    0.0000    0.0000 O   0  0  0  0  0  0  0  0  0  0  0  0
    3.3705    0.0000    0.0000 C   0  0  0  0  0  0  0  0  0  0  0  0
    3.0367   -1.4624    0.0000 C   0  0  0  0  0  0  0  0  0  0  0  0
    4.3881   -2.1132    0.0000 C   0  0  0  0  0  0  0  0  0  0  0  0
    2.1015   -2.6351    0.0000 C   0  0  0  0  0  0  0  0  0  0  0  0
    0.7500   -3.2860    0.0000 C   0  0  0  0  0  0  0  0  0  0  0  0
    1.8496   -4.3062    0.0000 C   0  0  0  0  0  0  0  0  0  0  0  0
    0.2020   -4.6823    0.0000 O   0  0  0  0  0  0  0  0  0  0  0  0
   -0.7500   -3.2860    0.0000 C   0  0  0  0  0  0  0  0  0  0  0  0
   -1.0838   -4.7484    0.0000 O   0  0  0  0  0  0  0  0  0  0  0  0
    0.0158   -5.7686    0.0000 C   0  0  0  0  0  0  0  0  0  0  0  0
    1.4492   -5.3265    0.0000 O   0  0  0  0  0  0  0  0  0  0  0  0
    2.5487   -6.3467    0.0000 C   0  0  0  0  0  0  0  0  0  0  0  0
    3.9821   -5.9046    0.0000 C   0  0  0  0  0  0  0  0  0  0  0  0
    2.2150   -7.8091    0.0000 C   0  0  0  0  0  0  0  0  0  0  0  0
    0.7816   -8.2513    0.0000 C   0  0  0  0  0  0  0  0  0  0  0  0
    0.4478   -9.7137    0.0000 N   0  0  0  0  0  0  0  0  0  0  0  0
    1.5474  -10.7339    0.0000 C   0  0  0  0  0  0  0  0  0  0  0  0
   -0.9855  -10.1558    0.0000 C   0  0  0  0  0  0  0  0  0  0  0  0
   -1.3193  -11.6182    0.0000 C   0  0  0  0  0  0  0  0  0  0  0  0
   -2.0851   -9.1355    0.0000 C   0  0  0  0  0  0  0  0  0  0  0  0
   -0.3180   -7.2310    0.0000 C   0  0  0  0  0  0  0  0  0  0  0  0
   -1.7513   -7.6731    0.0000 O   0  0  0  0  0  0  0  0  0  0  0  0
   -2.1015   -2.6351    0.0000 C   0  0  0  0  0  0  0  0  0  0  0  0
   -3.0367   -3.8079    0.0000 C   0  0  0  0  0  0  0  0  0  0  0  0
   -3.0367   -1.4624    0.0000 C   0  0  0  0  0  0  0  0  0  0  0  0
   -4.3881   -2.1132    0.0000 O   0  0  0  0  0  0  0  0  0  0  0  0
   -5.6275   -1.2682    0.0000 C   0  0  0  0  0  0  0  0  0  0  0  0
   -6.9790   -1.9191    0.0000 C   0  0  0  0  0  0  0  0  0  0  0  0
   -8.2183   -1.0741    0.0000 C   0  0  0  0  0  0  0  0  0  0  0  0
   -9.6719   -0.7039    0.0000 C   0  0  0  0  0  0  0  0  0  0  0  0
   -8.8352   -2.4413    0.0000 O   0  0  0  0  0  0  0  0  0  0  0  0
  -10.3278   -2.5907    0.0000 C   0  0  0  0  0  0  0  0  0  0  0  0
   -8.1062    0.4217    0.0000 C   0  0  0  0  0  0  0  0  0  0  0  0
   -9.3456    1.2667    0.0000 O   0  0  0  0  0  0  0  0  0  0  0  0
   -6.7548    1.0725    0.0000 C   0  0  0  0  0  0  0  0  0  0  0  0
   -6.6427    2.5684    0.0000 C   0  0  0  0  0  0  0  0  0  0  0  0
   -5.5154    0.2276    0.0000 O   0  0  0  0  0  0  0  0  0  0  0  0
   -3.3705    0.0000    0.0000 C   0  0  0  0  0  0  0  0  0  0  0  0
   -4.6804    0.3267    0.0000 C   0  0  0  0  0  0  0  0  0  0  0  0
   -3.0367    1.4624    0.0000 C   0  0  0  0  0  0  0  0  0  0  0  0
   -4.3881    2.1132    0.0000 O   0  0  0  0  0  0  0  0  0  0  0  0
   -2.1015    2.6351    0.0000 O   0  0  0  0  0  0  0  0  0  0  0  0
   -0.7500    3.2860    0.0000 C   0  0  0  0  0  0  0  0  0  0  0  0
   -1.0838    4.7484    0.0000 C   0  0  0  0  0  0  0  0  0  0  0  0
    0.0158    5.7686    0.0000 C   0  0  0  0  0  0  0  0  0  0  0  0
    0.7500    3.2860    0.0000 C   0  0  0  0  0  0  0  0  0  0  0  0
    0.2020    4.6823    0.0000 C   0  0  0  0  0  0  0  0  0  0  0  0
    1.8496    4.3062    0.0000 O   0  0  0  0  0  0  0  0  0  0  0  0
    2.1015    2.6351    0.0000 C   0  0  0  0  0  0  0  0  0  0  0  0
    3.0367    3.8079    0.0000 O   0  0  0  0  0  0  0  0  0  0  0  0
    3.0367    1.4624    0.0000 C   0  0  0  0  0  0  0  0  0  0  0  0
    4.3881    2.1132    0.0000 C   0  0  0  0  0  0  0  0  0  0  0  0
  1  2  1  0
  2  3  1  0
  3  4  1  0
  4  5  2  0
  4  6  1  0
  6  7  1  0
  7  8  1  0
  8  9  1  0
 10  9  1  1
 10 11  1  0
 11 12  1  6
 11 13  1  0
 13 14  1  0
 14 15  1  6
 14 16  1  0
 14 17  1  0
 17 18  1  6
 19 18  1  6
 19 20  1  0
 20 21  1  0
 21 22  1  6
 21 23  1  0
 23 24  1  0
 24 25  1  6
 25 26  1  0
 25 27  1  0
 27 28  1  0
 27 29  1  0
 24 30  1  0
 30 31  1  1
 17 32  1  0
 32 33  1  1
 32 34  1  0
 34 35  1  6
 36 35  1  1
 36 37  1  0
 37 38  1  0
 38 39  1  6
 38 40  1  0
 40 41  1  0
 38 42  1  0
 42 43  1  1
 42 44  1  0
 44 45  1  6
 44 46  1  0
 34 47  1  0
 47 48  1  1
 47 49  1  0
 49 50  2  0
 49 51  1  0
 51 52  1  0
 52 53  1  6
 53 54  1  0
 52 55  1  0
 55 56  1  6
 55 57  1  0
 55 58  1  0
 58 59  1  6
 58 60  1  0
 60 61  1  1
 60 10  1  0
 30 19  1  0
 46 36  1  0
M  END
>  <ChEMBL_IDs>  (75) 
CHEMBL1269442

>  <target_organism>  (75) 
nan

>  <target_molecule_pref_name>  (75) 
None

>  <# Known Targets>  (75) 
1.0

>  <Known Targets>  (75) 
CHEMBL3879801

>  <smiles>  (75) 
CCNC(=S)NCCO[C@H]1[C@H](C)C[C@@](C)(O)[C@H](O[C@@H]2O[C@H](C)C[C@H](N(C)C(C)C)[C@H]2O)[C@@H](C)[C@H](O[C@H]2C[C@@](C)(OC)[C@@H](O)[C@H](C)O2)[C@@H](C)C(=O)O[C@H](CC)[C@@](C)(O)[C@H](O)[C@H]1C

$$$$

     RDKit          2D

 61 63  0  0  0  0  0  0  0  0999 V2000
   14.1073    5.1962    0.0000 C   0  0  0  0  0  0  0  0  0  0  0  0
   12.6073    5.1962    0.0000 C   0  0  0  0  0  0  0  0  0  0  0  0
   11.8573    3.8971    0.0000 C   0  0  0  0  0  0  0  0  0  0  0  0
   10.3573    3.8971    0.0000 N   0  0  0  0  0  0  0  0  0  0  0  0
    9.6073    2.5981    0.0000 C   0  0  0  0  0  0  0  0  0  0  0  0
   10.3573    1.2990    0.0000 S   0  0  0  0  0  0  0  0  0  0  0  0
    8.1073    2.5981    0.0000 N   0  0  0  0  0  0  0  0  0  0  0  0
    7.3573    1.2990    0.0000 C   0  0  0  0  0  0  0  0  0  0  0  0
    5.8573    1.2990    0.0000 C   0  0  0  0  0  0  0  0  0  0  0  0
    5.1073    0.0000    0.0000 C   0  0  0  0  0  0  0  0  0  0  0  0
    3.6073    0.0000    0.0000 N   0  0  0  0  0  0  0  0  0  0  0  0
    3.2954    1.4672    0.0000 C   0  0  0  0  0  0  0  0  0  0  0  0
    2.4138    2.6807    0.0000 C   0  0  0  0  0  0  0  0  0  0  0  0
    3.4175    3.7955    0.0000 C   0  0  0  0  0  0  0  0  0  0  0  0
    1.1147    3.4307    0.0000 C   0  0  0  0  0  0  0  0  0  0  0  0
   -0.3771    3.5875    0.0000 C   0  0  0  0  0  0  0  0  0  0  0  0
   -1.3412    4.7366    0.0000 C   0  0  0  0  0  0  0  0  0  0  0  0
    0.3271    4.9120    0.0000 O   0  0  0  0  0  0  0  0  0  0  0  0
   -1.8037    3.1240    0.0000 C   0  0  0  0  0  0  0  0  0  0  0  0
   -2.5537    4.4231    0.0000 O   0  0  0  0  0  0  0  0  0  0  0  0
   -1.8037    5.7221    0.0000 C   0  0  0  0  0  0  0  0  0  0  0  0
   -0.3037    5.7221    0.0000 O   0  0  0  0  0  0  0  0  0  0  0  0
    0.4463    7.0211    0.0000 C   0  0  0  0  0  0  0  0  0  0  0  0
    1.9463    7.0211    0.0000 C   0  0  0  0  0  0  0  0  0  0  0  0
   -0.3037    8.3202    0.0000 C   0  0  0  0  0  0  0  0  0  0  0  0
   -1.8037    8.3202    0.0000 C   0  0  0  0  0  0  0  0  0  0  0  0
   -2.5537    9.6192    0.0000 N   0  0  0  0  0  0  0  0  0  0  0  0
   -1.8037   10.9182    0.0000 C   0  0  0  0  0  0  0  0  0  0  0  0
   -4.0537    9.6192    0.0000 C   0  0  0  0  0  0  0  0  0  0  0  0
   -2.5537    7.0211    0.0000 C   0  0  0  0  0  0  0  0  0  0  0  0
   -4.0537    7.0211    0.0000 O   0  0  0  0  0  0  0  0  0  0  0  0
   -2.9184    2.1203    0.0000 C   0  0  0  0  0  0  0  0  0  0  0  0
   -4.1319    3.0020    0.0000 C   0  0  0  0  0  0  0  0  0  0  0  0
   -3.5285    0.7500    0.0000 C   0  0  0  0  0  0  0  0  0  0  0  0
   -4.9957    1.0619    0.0000 O   0  0  0  0  0  0  0  0  0  0  0  0
   -5.9994   -0.0528    0.0000 C   0  0  0  0  0  0  0  0  0  0  0  0
   -7.4666    0.2590    0.0000 C   0  0  0  0  0  0  0  0  0  0  0  0
   -8.4703   -0.8557    0.0000 C   0  0  0  0  0  0  0  0  0  0  0  0
   -9.7947   -1.5599    0.0000 C   0  0  0  0  0  0  0  0  0  0  0  0
   -9.3938    0.3263    0.0000 O   0  0  0  0  0  0  0  0  0  0  0  0
  -10.8792    0.1176    0.0000 C   0  0  0  0  0  0  0  0  0  0  0  0
   -8.0068   -2.2823    0.0000 C   0  0  0  0  0  0  0  0  0  0  0  0
   -9.0105   -3.3970    0.0000 O   0  0  0  0  0  0  0  0  0  0  0  0
   -6.5396   -2.5942    0.0000 C   0  0  0  0  0  0  0  0  0  0  0  0
   -6.0760   -4.0207    0.0000 C   0  0  0  0  0  0  0  0  0  0  0  0
   -5.5359   -1.4794    0.0000 O   0  0  0  0  0  0  0  0  0  0  0  0
   -3.5285   -0.7500    0.0000 C   0  0  0  0  0  0  0  0  0  0  0  0
   -4.7418   -1.3419    0.0000 C   0  0  0  0  0  0  0  0  0  0  0  0
   -2.9184   -2.1203    0.0000 C   0  0  0  0  0  0  0  0  0  0  0  0
   -4.1319   -3.0020    0.0000 O   0  0  0  0  0  0  0  0  0  0  0  0
   -1.8037   -3.1240    0.0000 O   0  0  0  0  0  0  0  0  0  0  0  0
   -0.3771   -3.5875    0.0000 C   0  0  0  0  0  0  0  0  0  0  0  0
   -0.5339   -5.0793    0.0000 C   0  0  0  0  0  0  0  0  0  0  0  0
   -1.9042   -5.6894    0.0000 C   0  0  0  0  0  0  0  0  0  0  0  0
    1.1147   -3.4307    0.0000 C   0  0  0  0  0  0  0  0  0  0  0  0
    2.2967   -4.3542    0.0000 C   0  0  0  0  0  0  0  0  0  0  0  0
    0.7013   -4.8726    0.0000 O   0  0  0  0  0  0  0  0  0  0  0  0
    2.4138   -2.6807    0.0000 C   0  0  0  0  0  0  0  0  0  0  0  0
    3.4175   -3.7955    0.0000 O   0  0  0  0  0  0  0  0  0  0  0  0
    3.2954   -1.4672    0.0000 C   0  0  0  0  0  0  0  0  0  0  0  0
    4.6658   -2.0773    0.0000 C   0  0  0  0  0  0  0  0  0  0  0  0
  1  2  2  0
  2  3  1  0
  3  4  1  0
  4  5  1  0
  5  6  2  0
  5  7  1  0
  7  8  1  0
  8  9  1  0
  9 10  1  0
 10 11  1  0
 11 12  1  0
 12 13  1  0
 13 14  1  1
 13 15  1  0
 15 16  1  0
 16 17  1  1
 16 18  1  0
 16 19  1  0
 19 20  1  1
 21 20  1  1
 21 22  1  0
 22 23  1  0
 23 24  1  1
 23 25  1  0
 25 26  1  0
 26 27  1  1
 27 28  1  0
 27 29  1  0
 26 30  1  0
 30 31  1  6
 19 32  1  0
 32 33  1  6
 32 34  1  0
 34 35  1  1
 36 35  1  6
 36 37  1  0
 37 38  1  0
 38 39  1  1
 38 40  1  0
 40 41  1  0
 38 42  1  0
 42 43  1  6
 42 44  1  0
 44 45  1  1
 44 46  1  0
 34 47  1  0
 47 48  1  6
 47 49  1  0
 49 50  2  0
 49 51  1  0
 51 52  1  0
 52 53  1  1
 53 54  1  0
 52 55  1  0
 55 56  1  1
 55 57  1  0
 55 58  1  0
 58 59  1  1
 58 60  1  0
 60 61  1  6
 60 11  1  0
 30 21  1  0
 46 36  1  0
M  END
>  <ChEMBL_IDs>  (76) 
CHEMBL1682713

>  <target_organism>  (76) 
Homo sapiens,None,Escherichia coli K-12

>  <target_molecule_pref_name>  (76) 
None

>  <# Known Targets>  (76) 
1.0

>  <Known Targets>  (76) 
CHEMBL364

>  <smiles>  (76) 
C=CCNC(=S)NCCCN1C[C@H](C)C[C@@](C)(O)[C@H](O[C@@H]2O[C@H](C)C[C@H](N(C)C)[C@H]2O)[C@@H](C)[C@H](O[C@H]2C[C@@](C)(OC)[C@@H](O)[C@H](C)O2)[C@@H](C)C(=O)O[C@H](CC)[C@@](C)(O)[C@H](O)[C@H]1C

$$$$

     RDKit          2D

 58 60  0  0  0  0  0  0  0  0999 V2000
    6.0944   -1.2990    0.0000 C   0  0  0  0  0  0  0  0  0  0  0  0
    5.3444    0.0000    0.0000 O   0  0  0  0  0  0  0  0  0  0  0  0
    3.8444    0.0000    0.0000 C   0  0  0  0  0  0  0  0  0  0  0  0
    3.5517   -1.4712    0.0000 C   0  0  0  0  0  0  0  0  0  0  0  0
    4.9376   -2.0452    0.0000 O   0  0  0  0  0  0  0  0  0  0  0  0
    5.1333   -3.5324    0.0000 C   0  0  0  0  0  0  0  0  0  0  0  0
    3.9433   -4.4455    0.0000 O   0  0  0  0  0  0  0  0  0  0  0  0
    4.1391   -5.9327    0.0000 C   0  0  0  0  0  0  0  0  0  0  0  0
    2.9491   -6.8458    0.0000 C   0  0  0  0  0  0  0  0  0  0  0  0
    5.5249   -6.5067    0.0000 C   0  0  0  0  0  0  0  0  0  0  0  0
    5.7207   -7.9939    0.0000 O   0  0  0  0  0  0  0  0  0  0  0  0
    4.5307   -8.9070    0.0000 C   0  0  0  0  0  0  0  0  0  0  0  0
    3.1449   -8.3330    0.0000 C   0  0  0  0  0  0  0  0  0  0  0  0
    1.9548   -9.2461    0.0000 C   0  0  0  0  0  0  0  0  0  0  0  0
    0.5243   -9.6972    0.0000 C   0  0  0  0  0  0  0  0  0  0  0  0
    1.2622   -7.9156    0.0000 O   0  0  0  0  0  0  0  0  0  0  0  0
    2.1506  -10.7333    0.0000 C   0  0  0  0  0  0  0  0  0  0  0  0
    0.9606  -11.6464    0.0000 O   0  0  0  0  0  0  0  0  0  0  0  0
    1.1564  -13.1336    0.0000 C   0  0  0  0  0  0  0  0  0  0  0  0
    2.5422  -13.7076    0.0000 O   0  0  0  0  0  0  0  0  0  0  0  0
   -0.0336  -14.0468    0.0000 C   0  0  0  0  0  0  0  0  0  0  0  0
    0.1621  -15.5339    0.0000 C   0  0  0  0  0  0  0  0  0  0  0  0
   -1.0279  -16.4471    0.0000 C   0  0  0  0  0  0  0  0  0  0  0  0
    1.5480  -16.1079    0.0000 C   0  0  0  0  0  0  0  0  0  0  0  0
    3.5364  -11.3073    0.0000 C   0  0  0  0  0  0  0  0  0  0  0  0
    3.7322  -12.7945    0.0000 C   0  0  0  0  0  0  0  0  0  0  0  0
    4.7265  -10.3942    0.0000 O   0  0  0  0  0  0  0  0  0  0  0  0
    6.7150   -5.5936    0.0000 C   0  0  0  0  0  0  0  0  0  0  0  0
    8.1008   -6.1676    0.0000 N   0  0  0  0  0  0  0  0  0  0  0  0
    8.2966   -7.6548    0.0000 C   0  0  0  0  0  0  0  0  0  0  0  0
    9.2908   -5.2544    0.0000 C   0  0  0  0  0  0  0  0  0  0  0  0
    6.5192   -4.1064    0.0000 C   0  0  0  0  0  0  0  0  0  0  0  0
    7.7092   -3.1933    0.0000 O   0  0  0  0  0  0  0  0  0  0  0  0
    2.7184   -2.7184    0.0000 C   0  0  0  0  0  0  0  0  0  0  0  0
    3.7790   -3.7790    0.0000 C   0  0  0  0  0  0  0  0  0  0  0  0
    3.3908   -5.2279    0.0000 C   0  0  0  0  0  0  0  0  0  0  0  0
    4.1633   -6.5137    0.0000 O   0  0  0  0  0  0  0  0  0  0  0  0
    1.4712   -3.5517    0.0000 C   0  0  0  0  0  0  0  0  0  0  0  0
   -0.0000   -3.8444    0.0000 C   0  0  0  0  0  0  0  0  0  0  0  0
   -0.0000   -5.3444    0.0000 C   0  0  0  0  0  0  0  0  0  0  0  0
   -1.4712   -3.5517    0.0000 C   0  0  0  0  0  0  0  0  0  0  0  0
   -2.0452   -4.9376    0.0000 O   0  0  0  0  0  0  0  0  0  0  0  0
   -2.7184   -2.7184    0.0000 C   0  0  0  0  0  0  0  0  0  0  0  0
   -3.5517   -1.4712    0.0000 C   0  0  0  0  0  0  0  0  0  0  0  0
   -3.8444    0.0000    0.0000 C   0  0  0  0  0  0  0  0  0  0  0  0
   -3.5517    1.4712    0.0000 C   0  0  0  0  0  0  0  0  0  0  0  0
   -2.7184    2.7184    0.0000 C   0  0  0  0  0  0  0  0  0  0  0  0
   -1.4712    3.5517    0.0000 C   0  0  0  0  0  0  0  0  0  0  0  0
   -2.0452    4.9376    0.0000 C   0  0  0  0  0  0  0  0  0  0  0  0
    0.0000    3.8444    0.0000 O   0  0  0  0  0  0  0  0  0  0  0  0
    1.4712    3.5517    0.0000 C   0  0  0  0  0  0  0  0  0  0  0  0
    2.0452    4.9376    0.0000 O   0  0  0  0  0  0  0  0  0  0  0  0
    2.7184    2.7184    0.0000 C   0  0  0  0  0  0  0  0  0  0  0  0
    3.5517    1.4712    0.0000 C   0  0  0  0  0  0  0  0  0  0  0  0
    4.9376    2.0452    0.0000 O   0  0  0  0  0  0  0  0  0  0  0  0
    6.1276    1.1321    0.0000 C   0  0  0  0  0  0  0  0  0  0  0  0
    7.5134    1.7061    0.0000 C   0  0  0  0  0  0  0  0  0  0  0  0
    6.2975   -0.3583    0.0000 O   0  0  0  0  0  0  0  0  0  0  0  0
  1  2  1  0
  3  2  1  6
  3  4  1  0
  4  5  1  1
  6  5  1  1
  6  7  1  0
  7  8  1  0
  8  9  1  1
  8 10  1  0
 10 11  1  6
 12 11  1  6
 12 13  1  0
 13 14  1  0
 14 15  1  1
 14 16  1  0
 14 17  1  0
 17 18  1  6
 18 19  1  0
 19 20  2  0
 19 21  1  0
 21 22  1  0
 22 23  1  0
 22 24  1  0
 17 25  1  0
 25 26  1  1
 25 27  1  0
 10 28  1  0
 28 29  1  1
 29 30  1  0
 29 31  1  0
 28 32  1  0
 32 33  1  6
  4 34  1  0
 34 35  1  1
 35 36  1  0
 36 37  2  0
 34 38  1  0
 38 39  1  0
 39 40  1  1
 39 41  1  0
 41 42  1  1
 41 43  1  0
 43 44  2  0
 44 45  1  0
 45 46  2  0
 46 47  1  0
 47 48  1  0
 48 49  1  1
 48 50  1  0
 50 51  1  0
 51 52  2  0
 51 53  1  0
 53 54  1  0
 54 55  1  1
 55 56  1  0
 56 57  1  0
 56 58  2  0
 54  3  1  0
 32  6  1  0
 27 12  1  0
M  END
>  <ChEMBL_IDs>  (77) 
CHEMBL224436

>  <target_organism>  (77) 
Plasmodium falciparum

>  <target_molecule_pref_name>  (77) 
JOSAMYCIN

>  <# Known Targets>  (77) 
1.0

>  <Known Targets>  (77) 
CHEMBL612545

>  <smiles>  (77) 
CO[C@@H]1[C@@H](O[C@@H]2O[C@H](C)[C@@H](O[C@H]3C[C@@](C)(O)[C@@H](OC(=O)CC(C)C)[C@H](C)O3)[C@H](N(C)C)[C@H]2O)[C@@H](CC=O)C[C@@H](C)[C@@H](O)/C=C/C=C/C[C@@H](C)OC(=O)C[C@H]1OC(C)=O

$$$$

     RDKit          2D

 61 63  0  0  0  0  0  0  0  0999 V2000
    5.6205   -1.2990    0.0000 C   0  0  0  0  0  0  0  0  0  0  0  0
    4.8705    0.0000    0.0000 C   0  0  0  0  0  0  0  0  0  0  0  0
    3.3705    0.0000    0.0000 C   0  0  0  0  0  0  0  0  0  0  0  0
    3.0367   -1.4624    0.0000 O   0  0  0  0  0  0  0  0  0  0  0  0
    2.1015   -2.6351    0.0000 C   0  0  0  0  0  0  0  0  0  0  0  0
    3.0367   -3.8079    0.0000 O   0  0  0  0  0  0  0  0  0  0  0  0
    0.7500   -3.2860    0.0000 C   0  0  0  0  0  0  0  0  0  0  0  0
    1.3600   -4.4903    0.0000 C   0  0  0  0  0  0  0  0  0  0  0  0
   -0.7500   -3.2860    0.0000 C   0  0  0  0  0  0  0  0  0  0  0  0
   -1.0838   -4.7484    0.0000 O   0  0  0  0  0  0  0  0  0  0  0  0
    0.0158   -5.7686    0.0000 C   0  0  0  0  0  0  0  0  0  0  0  0
   -0.3180   -7.2310    0.0000 C   0  0  0  0  0  0  0  0  0  0  0  0
    0.7816   -8.2513    0.0000 C   0  0  0  0  0  0  0  0  0  0  0  0
    1.4659   -9.5861    0.0000 C   0  0  0  0  0  0  0  0  0  0  0  0
   -0.4141   -9.1570    0.0000 O   0  0  0  0  0  0  0  0  0  0  0  0
   -0.2276  -10.6453    0.0000 C   0  0  0  0  0  0  0  0  0  0  0  0
    2.2150   -7.8091    0.0000 C   0  0  0  0  0  0  0  0  0  0  0  0
    3.3145   -8.8294    0.0000 O   0  0  0  0  0  0  0  0  0  0  0  0
    2.5487   -6.3467    0.0000 C   0  0  0  0  0  0  0  0  0  0  0  0
    3.9821   -5.9046    0.0000 C   0  0  0  0  0  0  0  0  0  0  0  0
    1.4492   -5.3265    0.0000 O   0  0  0  0  0  0  0  0  0  0  0  0
   -2.1015   -2.6351    0.0000 C   0  0  0  0  0  0  0  0  0  0  0  0
   -3.0367   -3.8079    0.0000 C   0  0  0  0  0  0  0  0  0  0  0  0
   -3.0367   -1.4624    0.0000 C   0  0  0  0  0  0  0  0  0  0  0  0
   -4.3881   -2.1132    0.0000 O   0  0  0  0  0  0  0  0  0  0  0  0
   -5.6275   -1.2682    0.0000 C   0  0  0  0  0  0  0  0  0  0  0  0
   -5.5154    0.2276    0.0000 O   0  0  0  0  0  0  0  0  0  0  0  0
   -6.7548    1.0725    0.0000 C   0  0  0  0  0  0  0  0  0  0  0  0
   -6.6427    2.5684    0.0000 C   0  0  0  0  0  0  0  0  0  0  0  0
   -8.1062    0.4217    0.0000 C   0  0  0  0  0  0  0  0  0  0  0  0
   -8.2183   -1.0741    0.0000 C   0  0  0  0  0  0  0  0  0  0  0  0
   -9.5698   -1.7249    0.0000 N   0  0  0  0  0  0  0  0  0  0  0  0
  -10.8091   -0.8799    0.0000 C   0  0  0  0  0  0  0  0  0  0  0  0
   -9.6819   -3.2207    0.0000 C   0  0  0  0  0  0  0  0  0  0  0  0
  -11.0333   -3.8715    0.0000 C   0  0  0  0  0  0  0  0  0  0  0  0
   -8.4425   -4.0657    0.0000 C   0  0  0  0  0  0  0  0  0  0  0  0
   -6.9790   -1.9191    0.0000 C   0  0  0  0  0  0  0  0  0  0  0  0
   -7.0910   -3.4149    0.0000 O   0  0  0  0  0  0  0  0  0  0  0  0
   -3.3705    0.0000    0.0000 C   0  0  0  0  0  0  0  0  0  0  0  0
   -4.6098   -0.8450    0.0000 C   0  0  0  0  0  0  0  0  0  0  0  0
   -4.6098    0.8450    0.0000 O   0  0  0  0  0  0  0  0  0  0  0  0
   -3.0367    1.4624    0.0000 C   0  0  0  0  0  0  0  0  0  0  0  0
   -2.1015    2.6351    0.0000 C   0  0  0  0  0  0  0  0  0  0  0  0
   -3.0367    3.8079    0.0000 C   0  0  0  0  0  0  0  0  0  0  0  0
   -0.7500    3.2860    0.0000 C   0  0  0  0  0  0  0  0  0  0  0  0
   -1.0838    4.7484    0.0000 O   0  0  0  0  0  0  0  0  0  0  0  0
    0.0158    5.7686    0.0000 C   0  0  0  0  0  0  0  0  0  0  0  0
   -0.3180    7.2310    0.0000 C   0  0  0  0  0  0  0  0  0  0  0  0
   -1.7513    7.6731    0.0000 O   0  0  0  0  0  0  0  0  0  0  0  0
    0.7816    8.2513    0.0000 N   0  0  0  0  0  0  0  0  0  0  0  0
    0.4478    9.7137    0.0000 C   0  0  0  0  0  0  0  0  0  0  0  0
    1.5474   10.7339    0.0000 C   0  0  0  0  0  0  0  0  0  0  0  0
    1.2136   12.1963    0.0000 O   0  0  0  0  0  0  0  0  0  0  0  0
    2.3132   13.2166    0.0000 C   0  0  0  0  0  0  0  0  0  0  0  0
    0.7500    3.2860    0.0000 C   0  0  0  0  0  0  0  0  0  0  0  0
    1.0838    4.7484    0.0000 C   0  0  0  0  0  0  0  0  0  0  0  0
    2.1015    2.6351    0.0000 C   0  0  0  0  0  0  0  0  0  0  0  0
    3.0367    3.8079    0.0000 O   0  0  0  0  0  0  0  0  0  0  0  0
    3.0367    1.4624    0.0000 C   0  0  0  0  0  0  0  0  0  0  0  0
    3.7867    2.7614    0.0000 C   0  0  0  0  0  0  0  0  0  0  0  0
    4.5199    1.2388    0.0000 O   0  0  0  0  0  0  0  0  0  0  0  0
  1  2  1  0
  3  2  1  1
  3  4  1  0
  4  5  1  0
  5  6  2  0
  5  7  1  0
  7  8  1  6
  7  9  1  0
  9 10  1  1
 11 10  1  6
 11 12  1  0
 12 13  1  0
 13 14  1  1
 13 15  1  0
 15 16  1  0
 13 17  1  0
 17 18  1  6
 17 19  1  0
 19 20  1  1
 19 21  1  0
  9 22  1  0
 22 23  1  6
 22 24  1  0
 24 25  1  1
 26 25  1  1
 26 27  1  0
 27 28  1  0
 28 29  1  1
 28 30  1  0
 30 31  1  0
 31 32  1  1
 32 33  1  0
 32 34  1  0
 34 35  1  0
 34 36  1  0
 31 37  1  0
 37 38  1  6
 24 39  1  0
 39 40  1  1
 39 41  1  0
 39 42  1  0
 42 43  1  0
 43 44  1  1
 43 45  1  0
 45 46  1  6
 46 47  1  0
 47 48  1  0
 48 49  2  0
 48 50  1  0
 50 51  1  0
 51 52  1  0
 52 53  1  0
 53 54  1  0
 45 55  1  0
 55 56  1  6
 55 57  1  0
 57 58  1  1
 57 59  1  0
 59 60  1  1
 59 61  1  0
 59  3  1  0
 21 11  1  0
 37 26  1  0
M  END
>  <ChEMBL_IDs>  (78) 
CHEMBL574205

>  <target_organism>  (78) 
Rattus norvegicus

>  <target_molecule_pref_name>  (78) 
None

>  <# Known Targets>  (78) 
1.0

>  <Known Targets>  (78) 
CHEMBL5306

>  <smiles>  (78) 
CC[C@H]1OC(=O)[C@H](C)[C@@H](O[C@H]2C[C@@](C)(OC)[C@@H](O)[C@H](C)O2)[C@H](C)[C@@H](O[C@@H]2O[C@H](C)C[C@H](N(C)C(C)C)[C@H]2O)[C@](C)(O)C[C@@H](C)[C@H](OCC(=O)NCCOC)[C@H](C)[C@@H](O)[C@]1(C)O

$$$$

     RDKit          2D

 60 62  0  0  0  0  0  0  0  0999 V2000
    5.6205   -1.2990    0.0000 C   0  0  0  0  0  0  0  0  0  0  0  0
    4.8705    0.0000    0.0000 C   0  0  0  0  0  0  0  0  0  0  0  0
    3.3705    0.0000    0.0000 C   0  0  0  0  0  0  0  0  0  0  0  0
    3.0367   -1.4624    0.0000 O   0  0  0  0  0  0  0  0  0  0  0  0
    2.1015   -2.6351    0.0000 C   0  0  0  0  0  0  0  0  0  0  0  0
    3.0367   -3.8079    0.0000 O   0  0  0  0  0  0  0  0  0  0  0  0
    0.7500   -3.2860    0.0000 C   0  0  0  0  0  0  0  0  0  0  0  0
    1.3600   -4.4903    0.0000 C   0  0  0  0  0  0  0  0  0  0  0  0
   -0.7500   -3.2860    0.0000 C   0  0  0  0  0  0  0  0  0  0  0  0
   -1.0838   -4.7484    0.0000 O   0  0  0  0  0  0  0  0  0  0  0  0
    0.0158   -5.7686    0.0000 C   0  0  0  0  0  0  0  0  0  0  0  0
   -0.3180   -7.2310    0.0000 C   0  0  0  0  0  0  0  0  0  0  0  0
    0.7816   -8.2513    0.0000 C   0  0  0  0  0  0  0  0  0  0  0  0
    1.4659   -9.5861    0.0000 C   0  0  0  0  0  0  0  0  0  0  0  0
   -0.4141   -9.1570    0.0000 O   0  0  0  0  0  0  0  0  0  0  0  0
   -0.2276  -10.6453    0.0000 C   0  0  0  0  0  0  0  0  0  0  0  0
    2.2150   -7.8091    0.0000 C   0  0  0  0  0  0  0  0  0  0  0  0
    3.3145   -8.8294    0.0000 O   0  0  0  0  0  0  0  0  0  0  0  0
    2.5487   -6.3467    0.0000 C   0  0  0  0  0  0  0  0  0  0  0  0
    3.9821   -5.9046    0.0000 C   0  0  0  0  0  0  0  0  0  0  0  0
    1.4492   -5.3265    0.0000 O   0  0  0  0  0  0  0  0  0  0  0  0
   -2.1015   -2.6351    0.0000 C   0  0  0  0  0  0  0  0  0  0  0  0
   -3.0367   -3.8079    0.0000 C   0  0  0  0  0  0  0  0  0  0  0  0
   -3.0367   -1.4624    0.0000 C   0  0  0  0  0  0  0  0  0  0  0  0
   -4.3881   -2.1132    0.0000 O   0  0  0  0  0  0  0  0  0  0  0  0
   -5.6275   -1.2682    0.0000 C   0  0  0  0  0  0  0  0  0  0  0  0
   -5.5154    0.2276    0.0000 O   0  0  0  0  0  0  0  0  0  0  0  0
   -6.7548    1.0725    0.0000 C   0  0  0  0  0  0  0  0  0  0  0  0
   -6.6427    2.5684    0.0000 C   0  0  0  0  0  0  0  0  0  0  0  0
   -8.1062    0.4217    0.0000 C   0  0  0  0  0  0  0  0  0  0  0  0
   -8.2183   -1.0741    0.0000 C   0  0  0  0  0  0  0  0  0  0  0  0
   -9.5698   -1.7249    0.0000 N   0  0  0  0  0  0  0  0  0  0  0  0
  -10.8091   -0.8799    0.0000 C   0  0  0  0  0  0  0  0  0  0  0  0
   -9.6819   -3.2207    0.0000 C   0  0  0  0  0  0  0  0  0  0  0  0
  -11.0333   -3.8715    0.0000 C   0  0  0  0  0  0  0  0  0  0  0  0
   -8.4425   -4.0657    0.0000 C   0  0  0  0  0  0  0  0  0  0  0  0
   -6.9790   -1.9191    0.0000 C   0  0  0  0  0  0  0  0  0  0  0  0
   -7.0910   -3.4149    0.0000 O   0  0  0  0  0  0  0  0  0  0  0  0
   -3.3705    0.0000    0.0000 C   0  0  0  0  0  0  0  0  0  0  0  0
   -4.6098   -0.8450    0.0000 C   0  0  0  0  0  0  0  0  0  0  0  0
   -4.6098    0.8450    0.0000 O   0  0  0  0  0  0  0  0  0  0  0  0
   -3.0367    1.4624    0.0000 C   0  0  0  0  0  0  0  0  0  0  0  0
   -2.1015    2.6351    0.0000 C   0  0  0  0  0  0  0  0  0  0  0  0
   -3.0367    3.8079    0.0000 C   0  0  0  0  0  0  0  0  0  0  0  0
   -0.7500    3.2860    0.0000 C   0  0  0  0  0  0  0  0  0  0  0  0
   -1.0838    4.7484    0.0000 O   0  0  0  0  0  0  0  0  0  0  0  0
    0.0158    5.7686    0.0000 C   0  0  0  0  0  0  0  0  0  0  0  0
   -0.3180    7.2310    0.0000 C   0  0  0  0  0  0  0  0  0  0  0  0
   -1.7513    7.6731    0.0000 O   0  0  0  0  0  0  0  0  0  0  0  0
    0.7816    8.2513    0.0000 N   0  0  0  0  0  0  0  0  0  0  0  0
    0.4478    9.7137    0.0000 C   0  0  0  0  0  0  0  0  0  0  0  0
    1.5474   10.7339    0.0000 C   0  0  0  0  0  0  0  0  0  0  0  0
   -0.9855   10.1558    0.0000 C   0  0  0  0  0  0  0  0  0  0  0  0
    0.7500    3.2860    0.0000 C   0  0  0  0  0  0  0  0  0  0  0  0
    1.0838    4.7484    0.0000 C   0  0  0  0  0  0  0  0  0  0  0  0
    2.1015    2.6351    0.0000 C   0  0  0  0  0  0  0  0  0  0  0  0
    3.0367    3.8079    0.0000 O   0  0  0  0  0  0  0  0  0  0  0  0
    3.0367    1.4624    0.0000 C   0  0  0  0  0  0  0  0  0  0  0  0
    3.7867    2.7614    0.0000 C   0  0  0  0  0  0  0  0  0  0  0  0
    4.5199    1.2388    0.0000 O   0  0  0  0  0  0  0  0  0  0  0  0
  1  2  1  0
  3  2  1  1
  3  4  1  0
  4  5  1  0
  5  6  2  0
  5  7  1  0
  7  8  1  6
  7  9  1  0
  9 10  1  1
 11 10  1  6
 11 12  1  0
 12 13  1  0
 13 14  1  1
 13 15  1  0
 15 16  1  0
 13 17  1  0
 17 18  1  6
 17 19  1  0
 19 20  1  1
 19 21  1  0
  9 22  1  0
 22 23  1  6
 22 24  1  0
 24 25  1  1
 26 25  1  1
 26 27  1  0
 27 28  1  0
 28 29  1  1
 28 30  1  0
 30 31  1  0
 31 32  1  1
 32 33  1  0
 32 34  1  0
 34 35  1  0
 34 36  1  0
 31 37  1  0
 37 38  1  6
 24 39  1  0
 39 40  1  1
 39 41  1  0
 39 42  1  0
 42 43  1  0
 43 44  1  1
 43 45  1  0
 45 46  1  6
 46 47  1  0
 47 48  1  0
 48 49  2  0
 48 50  1  0
 50 51  1  0
 51 52  1  0
 51 53  1  0
 45 54  1  0
 54 55  1  6
 54 56  1  0
 56 57  1  1
 56 58  1  0
 58 59  1  1
 58 60  1  0
 58  3  1  0
 21 11  1  0
 37 26  1  0
M  END
>  <ChEMBL_IDs>  (79) 
CHEMBL574848

>  <target_organism>  (79) 
Rattus norvegicus

>  <target_molecule_pref_name>  (79) 
None

>  <# Known Targets>  (79) 
1.0

>  <Known Targets>  (79) 
CHEMBL5306

>  <smiles>  (79) 
CC[C@H]1OC(=O)[C@H](C)[C@@H](O[C@H]2C[C@@](C)(OC)[C@@H](O)[C@H](C)O2)[C@H](C)[C@@H](O[C@@H]2O[C@H](C)C[C@H](N(C)C(C)C)[C@H]2O)[C@](C)(O)C[C@@H](C)[C@H](OCC(=O)NC(C)C)[C@H](C)[C@@H](O)[C@]1(C)O

$$$$

     RDKit          2D

 60 62  0  0  0  0  0  0  0  0999 V2000
    5.6205   -1.2990    0.0000 C   0  0  0  0  0  0  0  0  0  0  0  0
    4.8705    0.0000    0.0000 C   0  0  0  0  0  0  0  0  0  0  0  0
    3.3705    0.0000    0.0000 C   0  0  0  0  0  0  0  0  0  0  0  0
    3.0367   -1.4624    0.0000 O   0  0  0  0  0  0  0  0  0  0  0  0
    2.1015   -2.6351    0.0000 C   0  0  0  0  0  0  0  0  0  0  0  0
    3.0367   -3.8079    0.0000 O   0  0  0  0  0  0  0  0  0  0  0  0
    0.7500   -3.2860    0.0000 C   0  0  0  0  0  0  0  0  0  0  0  0
    1.3600   -4.4903    0.0000 C   0  0  0  0  0  0  0  0  0  0  0  0
   -0.7500   -3.2860    0.0000 C   0  0  0  0  0  0  0  0  0  0  0  0
   -1.0838   -4.7484    0.0000 O   0  0  0  0  0  0  0  0  0  0  0  0
    0.0158   -5.7686    0.0000 C   0  0  0  0  0  0  0  0  0  0  0  0
   -0.3180   -7.2310    0.0000 C   0  0  0  0  0  0  0  0  0  0  0  0
    0.7816   -8.2513    0.0000 C   0  0  0  0  0  0  0  0  0  0  0  0
    1.4659   -9.5861    0.0000 C   0  0  0  0  0  0  0  0  0  0  0  0
   -0.4141   -9.1570    0.0000 O   0  0  0  0  0  0  0  0  0  0  0  0
   -0.2276  -10.6453    0.0000 C   0  0  0  0  0  0  0  0  0  0  0  0
    2.2150   -7.8091    0.0000 C   0  0  0  0  0  0  0  0  0  0  0  0
    3.3145   -8.8294    0.0000 O   0  0  0  0  0  0  0  0  0  0  0  0
    2.5487   -6.3467    0.0000 C   0  0  0  0  0  0  0  0  0  0  0  0
    3.9821   -5.9046    0.0000 C   0  0  0  0  0  0  0  0  0  0  0  0
    1.4492   -5.3265    0.0000 O   0  0  0  0  0  0  0  0  0  0  0  0
   -2.1015   -2.6351    0.0000 C   0  0  0  0  0  0  0  0  0  0  0  0
   -3.0367   -3.8079    0.0000 C   0  0  0  0  0  0  0  0  0  0  0  0
   -3.0367   -1.4624    0.0000 C   0  0  0  0  0  0  0  0  0  0  0  0
   -4.3881   -2.1132    0.0000 O   0  0  0  0  0  0  0  0  0  0  0  0
   -5.6275   -1.2682    0.0000 C   0  0  0  0  0  0  0  0  0  0  0  0
   -5.5154    0.2276    0.0000 O   0  0  0  0  0  0  0  0  0  0  0  0
   -6.7548    1.0725    0.0000 C   0  0  0  0  0  0  0  0  0  0  0  0
   -6.6427    2.5684    0.0000 C   0  0  0  0  0  0  0  0  0  0  0  0
   -8.1062    0.4217    0.0000 C   0  0  0  0  0  0  0  0  0  0  0  0
   -8.2183   -1.0741    0.0000 C   0  0  0  0  0  0  0  0  0  0  0  0
   -9.5698   -1.7249    0.0000 N   0  0  0  0  0  0  0  0  0  0  0  0
  -10.8091   -0.8799    0.0000 C   0  0  0  0  0  0  0  0  0  0  0  0
   -9.6819   -3.2207    0.0000 C   0  0  0  0  0  0  0  0  0  0  0  0
  -11.0333   -3.8715    0.0000 C   0  0  0  0  0  0  0  0  0  0  0  0
   -8.4425   -4.0657    0.0000 C   0  0  0  0  0  0  0  0  0  0  0  0
   -6.9790   -1.9191    0.0000 C   0  0  0  0  0  0  0  0  0  0  0  0
   -7.0910   -3.4149    0.0000 O   0  0  0  0  0  0  0  0  0  0  0  0
   -3.3705    0.0000    0.0000 C   0  0  0  0  0  0  0  0  0  0  0  0
   -4.6098   -0.8450    0.0000 C   0  0  0  0  0  0  0  0  0  0  0  0
   -4.6098    0.8450    0.0000 O   0  0  0  0  0  0  0  0  0  0  0  0
   -3.0367    1.4624    0.0000 C   0  0  0  0  0  0  0  0  0  0  0  0
   -2.1015    2.6351    0.0000 C   0  0  0  0  0  0  0  0  0  0  0  0
   -3.0367    3.8079    0.0000 C   0  0  0  0  0  0  0  0  0  0  0  0
   -0.7500    3.2860    0.0000 C   0  0  0  0  0  0  0  0  0  0  0  0
   -1.0838    4.7484    0.0000 O   0  0  0  0  0  0  0  0  0  0  0  0
    0.0158    5.7686    0.0000 C   0  0  0  0  0  0  0  0  0  0  0  0
   -0.3180    7.2310    0.0000 C   0  0  0  0  0  0  0  0  0  0  0  0
    0.7816    8.2513    0.0000 C   0  0  0  0  0  0  0  0  0  0  0  0
    0.4478    9.7137    0.0000 C   0  0  0  0  0  0  0  0  0  0  0  0
   -0.9855   10.1558    0.0000 O   0  0  0  0  0  0  0  0  0  0  0  0
    1.5474   10.7339    0.0000 N   0  0  0  0  0  0  0  0  0  0  0  0
    1.2136   12.1963    0.0000 C   0  0  0  0  0  0  0  0  0  0  0  0
    0.7500    3.2860    0.0000 C   0  0  0  0  0  0  0  0  0  0  0  0
    1.0838    4.7484    0.0000 C   0  0  0  0  0  0  0  0  0  0  0  0
    2.1015    2.6351    0.0000 C   0  0  0  0  0  0  0  0  0  0  0  0
    3.0367    3.8079    0.0000 O   0  0  0  0  0  0  0  0  0  0  0  0
    3.0367    1.4624    0.0000 C   0  0  0  0  0  0  0  0  0  0  0  0
    3.7867    2.7614    0.0000 C   0  0  0  0  0  0  0  0  0  0  0  0
    4.5199    1.2388    0.0000 O   0  0  0  0  0  0  0  0  0  0  0  0
  1  2  1  0
  3  2  1  1
  3  4  1  0
  4  5  1  0
  5  6  2  0
  5  7  1  0
  7  8  1  6
  7  9  1  0
  9 10  1  1
 11 10  1  6
 11 12  1  0
 12 13  1  0
 13 14  1  1
 13 15  1  0
 15 16  1  0
 13 17  1  0
 17 18  1  6
 17 19  1  0
 19 20  1  1
 19 21  1  0
  9 22  1  0
 22 23  1  6
 22 24  1  0
 24 25  1  1
 26 25  1  1
 26 27  1  0
 27 28  1  0
 28 29  1  1
 28 30  1  0
 30 31  1  0
 31 32  1  1
 32 33  1  0
 32 34  1  0
 34 35  1  0
 34 36  1  0
 31 37  1  0
 37 38  1  6
 24 39  1  0
 39 40  1  1
 39 41  1  0
 39 42  1  0
 42 43  1  0
 43 44  1  1
 43 45  1  0
 45 46  1  6
 46 47  1  0
 47 48  1  0
 48 49  1  0
 49 50  1  0
 50 51  2  0
 50 52  1  0
 52 53  1  0
 45 54  1  0
 54 55  1  6
 54 56  1  0
 56 57  1  1
 56 58  1  0
 58 59  1  1
 58 60  1  0
 58  3  1  0
 21 11  1  0
 37 26  1  0
M  END
>  <ChEMBL_IDs>  (80) 
CHEMBL583095

>  <target_organism>  (80) 
Rattus norvegicus

>  <target_molecule_pref_name>  (80) 
None

>  <# Known Targets>  (80) 
1.0

>  <Known Targets>  (80) 
CHEMBL5306

>  <smiles>  (80) 
CC[C@H]1OC(=O)[C@H](C)[C@@H](O[C@H]2C[C@@](C)(OC)[C@@H](O)[C@H](C)O2)[C@H](C)[C@@H](O[C@@H]2O[C@H](C)C[C@H](N(C)C(C)C)[C@H]2O)[C@](C)(O)C[C@@H](C)[C@H](OCCCC(=O)NC)[C@H](C)[C@@H](O)[C@]1(C)O

$$$$

     RDKit          2D

 62 64  0  0  0  0  0  0  0  0999 V2000
   18.4042   -4.8111    0.0000 C   0  0  0  0  0  0  0  0  0  0  0  0
   17.0184   -4.2371    0.0000 C   0  0  0  0  0  0  0  0  0  0  0  0
   16.8226   -2.7499    0.0000 C   0  0  0  0  0  0  0  0  0  0  0  0
   15.4367   -2.1759    0.0000 C   0  0  0  0  0  0  0  0  0  0  0  0
   14.2467   -3.0890    0.0000 O   0  0  0  0  0  0  0  0  0  0  0  0
   15.2410   -0.6887    0.0000 O   0  0  0  0  0  0  0  0  0  0  0  0
   13.8551   -0.1147    0.0000 C   0  0  0  0  0  0  0  0  0  0  0  0
   12.6651   -1.0279    0.0000 C   0  0  0  0  0  0  0  0  0  0  0  0
   12.8609   -2.5150    0.0000 C   0  0  0  0  0  0  0  0  0  0  0  0
   11.2793   -0.4538    0.0000 O   0  0  0  0  0  0  0  0  0  0  0  0
   11.0835    1.0333    0.0000 C   0  0  0  0  0  0  0  0  0  0  0  0
    9.6977    1.6074    0.0000 O   0  0  0  0  0  0  0  0  0  0  0  0
    8.5076    0.6942    0.0000 C   0  0  0  0  0  0  0  0  0  0  0  0
    7.1218    1.2682    0.0000 C   0  0  0  0  0  0  0  0  0  0  0  0
    6.9260    2.7554    0.0000 N   0  0  0  0  0  0  0  0  0  0  0  0
    8.1161    3.6686    0.0000 C   0  0  0  0  0  0  0  0  0  0  0  0
    6.2853    3.2296    0.0000 C   0  0  0  0  0  0  0  0  0  0  0  0
    5.9318    0.3551    0.0000 C   0  0  0  0  0  0  0  0  0  0  0  0
    4.5460    0.9291    0.0000 O   0  0  0  0  0  0  0  0  0  0  0  0
    4.3502    2.4163    0.0000 C   0  0  0  0  0  0  0  0  0  0  0  0
    3.1445    3.3086    0.0000 O   0  0  0  0  0  0  0  0  0  0  0  0
    5.5402    3.3294    0.0000 C   0  0  0  0  0  0  0  0  0  0  0  0
    5.3444    4.8166    0.0000 C   0  0  0  0  0  0  0  0  0  0  0  0
    6.5345    5.7298    0.0000 C   0  0  0  0  0  0  0  0  0  0  0  0
    6.3387    7.2169    0.0000 C   0  0  0  0  0  0  0  0  0  0  0  0
    4.9529    7.7909    0.0000 O   0  0  0  0  0  0  0  0  0  0  0  0
    7.5287    8.1301    0.0000 O   0  0  0  0  0  0  0  0  0  0  0  0
    6.1276   -1.1321    0.0000 C   0  0  0  0  0  0  0  0  0  0  0  0
    4.9376   -2.0452    0.0000 O   0  0  0  0  0  0  0  0  0  0  0  0
    3.5517   -1.4712    0.0000 C   0  0  0  0  0  0  0  0  0  0  0  0
    3.8444    0.0000    0.0000 C   0  0  0  0  0  0  0  0  0  0  0  0
    5.3444    0.0000    0.0000 O   0  0  0  0  0  0  0  0  0  0  0  0
    6.3864   -1.0790    0.0000 C   0  0  0  0  0  0  0  0  0  0  0  0
    3.5517    1.4712    0.0000 C   0  0  0  0  0  0  0  0  0  0  0  0
    4.7575    2.3635    0.0000 O   0  0  0  0  0  0  0  0  0  0  0  0
    2.7184    2.7184    0.0000 C   0  0  0  0  0  0  0  0  0  0  0  0
    1.4712    3.5517    0.0000 C   0  0  0  0  0  0  0  0  0  0  0  0
    2.0452    4.9376    0.0000 O   0  0  0  0  0  0  0  0  0  0  0  0
    0.0000    3.8444    0.0000 O   0  0  0  0  0  0  0  0  0  0  0  0
   -1.4712    3.5517    0.0000 C   0  0  0  0  0  0  0  0  0  0  0  0
   -2.0452    4.9376    0.0000 C   0  0  0  0  0  0  0  0  0  0  0  0
   -2.7184    2.7184    0.0000 C   0  0  0  0  0  0  0  0  0  0  0  0
   -3.5517    1.4712    0.0000 C   0  0  0  0  0  0  0  0  0  0  0  0
   -3.8444    0.0000    0.0000 C   0  0  0  0  0  0  0  0  0  0  0  0
   -3.5517   -1.4712    0.0000 C   0  0  0  0  0  0  0  0  0  0  0  0
   -2.7184   -2.7184    0.0000 C   0  0  0  0  0  0  0  0  0  0  0  0
   -1.4712   -3.5517    0.0000 C   0  0  0  0  0  0  0  0  0  0  0  0
   -2.0452   -4.9376    0.0000 O   0  0  0  0  0  0  0  0  0  0  0  0
   -0.0000   -3.8444    0.0000 C   0  0  0  0  0  0  0  0  0  0  0  0
   -0.0000   -5.3444    0.0000 C   0  0  0  0  0  0  0  0  0  0  0  0
    1.4712   -3.5517    0.0000 C   0  0  0  0  0  0  0  0  0  0  0  0
    2.7184   -2.7184    0.0000 C   0  0  0  0  0  0  0  0  0  0  0  0
    3.7790   -3.7790    0.0000 C   0  0  0  0  0  0  0  0  0  0  0  0
    3.3908   -5.2279    0.0000 C   0  0  0  0  0  0  0  0  0  0  0  0
    4.4515   -6.2886    0.0000 O   0  0  0  0  0  0  0  0  0  0  0  0
    7.5134   -1.7061    0.0000 O   0  0  0  0  0  0  0  0  0  0  0  0
    8.7034   -0.7929    0.0000 C   0  0  0  0  0  0  0  0  0  0  0  0
   10.0893   -1.3670    0.0000 C   0  0  0  0  0  0  0  0  0  0  0  0
   12.2735    1.9465    0.0000 C   0  0  0  0  0  0  0  0  0  0  0  0
   13.6593    1.3725    0.0000 C   0  0  0  0  0  0  0  0  0  0  0  0
   13.9840    2.8369    0.0000 C   0  0  0  0  0  0  0  0  0  0  0  0
   15.1579    1.3070    0.0000 O   0  0  0  0  0  0  0  0  0  0  0  0
  1  2  1  0
  2  3  1  0
  3  4  1  0
  4  5  2  0
  4  6  1  0
  7  6  1  1
  7  8  1  0
  8  9  1  6
  8 10  1  0
 10 11  1  0
 11 12  1  1
 13 12  1  6
 13 14  1  0
 14 15  1  1
 15 16  1  0
 15 17  1  0
 14 18  1  0
 18 19  1  6
 19 20  1  0
 20 21  2  0
 20 22  1  0
 22 23  1  0
 23 24  1  0
 24 25  1  0
 25 26  2  0
 25 27  1  0
 18 28  1  0
 28 29  1  1
 30 29  1  1
 30 31  1  0
 31 32  1  6
 32 33  1  0
 31 34  1  0
 34 35  1  1
 34 36  1  0
 36 37  1  0
 37 38  2  0
 37 39  1  0
 39 40  1  0
 40 41  1  1
 40 42  1  0
 42 43  1  0
 43 44  2  0
 44 45  1  0
 45 46  2  0
 46 47  1  0
 47 48  1  1
 47 49  1  0
 49 50  1  1
 49 51  1  0
 51 52  1  0
 52 53  1  1
 53 54  1  0
 54 55  2  0
 28 56  1  0
 56 57  1  0
 57 58  1  1
 11 59  1  0
 59 60  1  0
 60 61  1  6
 60 62  1  0
 60  7  1  0
 57 13  1  0
 52 30  1  0
M  END
>  <ChEMBL_IDs>  (81) 
CHEMBL3244608

>  <target_organism>  (81) 
None

>  <target_molecule_pref_name>  (81) 
None

>  <# Known Targets>  (81) 
1.0

>  <Known Targets>  (81) 
CHEMBL612545

>  <smiles>  (81) 
CCCC(=O)O[C@H]1[C@H](C)O[C@@H](O[C@H]2[C@H](N(C)C)[C@@H](OC(=O)CCCC(=O)O)[C@H](O[C@@H]3[C@@H](OC)[C@H](O)CC(=O)O[C@H](C)C/C=C/C=C/[C@H](O)[C@H](C)C[C@@H]3CC=O)O[C@@H]2C)C[C@@]1(C)O

$$$$

     RDKit          2D

 61 63  0  0  0  0  0  0  0  0999 V2000
    5.2279   -3.3908    0.0000 C   0  0  0  0  0  0  0  0  0  0  0  0
    3.7790   -3.7790    0.0000 O   0  0  0  0  0  0  0  0  0  0  0  0
    2.7184   -2.7184    0.0000 C   0  0  0  0  0  0  0  0  0  0  0  0
    3.5517   -1.4712    0.0000 C   0  0  0  0  0  0  0  0  0  0  0  0
    4.9376   -2.0452    0.0000 O   0  0  0  0  0  0  0  0  0  0  0  0
    6.1276   -1.1321    0.0000 C   0  0  0  0  0  0  0  0  0  0  0  0
    7.5134   -1.7061    0.0000 O   0  0  0  0  0  0  0  0  0  0  0  0
    8.7034   -0.7929    0.0000 C   0  0  0  0  0  0  0  0  0  0  0  0
   10.0893   -1.3670    0.0000 C   0  0  0  0  0  0  0  0  0  0  0  0
    8.5076    0.6942    0.0000 C   0  0  0  0  0  0  0  0  0  0  0  0
    9.6977    1.6074    0.0000 O   0  0  0  0  0  0  0  0  0  0  0  0
   11.0835    1.0333    0.0000 C   0  0  0  0  0  0  0  0  0  0  0  0
   11.2793   -0.4538    0.0000 C   0  0  0  0  0  0  0  0  0  0  0  0
   12.6651   -1.0279    0.0000 C   0  0  0  0  0  0  0  0  0  0  0  0
   13.7710   -2.0412    0.0000 C   0  0  0  0  0  0  0  0  0  0  0  0
   11.8592   -2.2929    0.0000 O   0  0  0  0  0  0  0  0  0  0  0  0
   13.8551   -0.1147    0.0000 C   0  0  0  0  0  0  0  0  0  0  0  0
   15.2410   -0.6887    0.0000 O   0  0  0  0  0  0  0  0  0  0  0  0
   16.4310    0.2244    0.0000 C   0  0  0  0  0  0  0  0  0  0  0  0
   16.2352    1.7116    0.0000 O   0  0  0  0  0  0  0  0  0  0  0  0
   17.8168   -0.3496    0.0000 C   0  0  0  0  0  0  0  0  0  0  0  0
   19.0068    0.5635    0.0000 C   0  0  0  0  0  0  0  0  0  0  0  0
   20.3927   -0.0105    0.0000 C   0  0  0  0  0  0  0  0  0  0  0  0
   18.8110    2.0507    0.0000 C   0  0  0  0  0  0  0  0  0  0  0  0
   13.6593    1.3725    0.0000 C   0  0  0  0  0  0  0  0  0  0  0  0
   14.8494    2.2856    0.0000 C   0  0  0  0  0  0  0  0  0  0  0  0
   12.2735    1.9465    0.0000 O   0  0  0  0  0  0  0  0  0  0  0  0
    7.1218    1.2682    0.0000 C   0  0  0  0  0  0  0  0  0  0  0  0
    6.9260    2.7554    0.0000 N   0  0  0  0  0  0  0  0  0  0  0  0
    5.9743    3.2939    0.0000 C   0  0  0  0  0  0  0  0  0  0  0  0
    8.1161    3.6686    0.0000 C   0  0  0  0  0  0  0  0  0  0  0  0
    5.9318    0.3551    0.0000 C   0  0  0  0  0  0  0  0  0  0  0  0
    4.5460    0.9291    0.0000 O   0  0  0  0  0  0  0  0  0  0  0  0
    4.3502    2.4163    0.0000 C   0  0  0  0  0  0  0  0  0  0  0  0
    5.1301    3.1828    0.0000 C   0  0  0  0  0  0  0  0  0  0  0  0
    3.1445    3.3086    0.0000 O   0  0  0  0  0  0  0  0  0  0  0  0
    3.8444   -0.0000    0.0000 C   0  0  0  0  0  0  0  0  0  0  0  0
    5.3444   -0.0000    0.0000 C   0  0  0  0  0  0  0  0  0  0  0  0
    6.0944    1.2990    0.0000 C   0  0  0  0  0  0  0  0  0  0  0  0
    7.5498    1.6620    0.0000 O   0  0  0  0  0  0  0  0  0  0  0  0
    3.5517    1.4712    0.0000 C   0  0  0  0  0  0  0  0  0  0  0  0
    2.7184    2.7184    0.0000 C   0  0  0  0  0  0  0  0  0  0  0  0
    3.7790    3.7790    0.0000 C   0  0  0  0  0  0  0  0  0  0  0  0
    1.4712    3.5517    0.0000 C   0  0  0  0  0  0  0  0  0  0  0  0
    2.0452    4.9376    0.0000 O   0  0  0  0  0  0  0  0  0  0  0  0
    0.0000    3.8444    0.0000 C   0  0  0  0  0  0  0  0  0  0  0  0
   -1.4712    3.5517    0.0000 C   0  0  0  0  0  0  0  0  0  0  0  0
   -2.7184    2.7184    0.0000 C   0  0  0  0  0  0  0  0  0  0  0  0
   -3.5517    1.4712    0.0000 C   0  0  0  0  0  0  0  0  0  0  0  0
   -3.8444    0.0000    0.0000 C   0  0  0  0  0  0  0  0  0  0  0  0
   -3.5517   -1.4712    0.0000 C   0  0  0  0  0  0  0  0  0  0  0  0
   -4.9376   -2.0452    0.0000 C   0  0  0  0  0  0  0  0  0  0  0  0
   -2.7184   -2.7184    0.0000 O   0  0  0  0  0  0  0  0  0  0  0  0
   -1.4712   -3.5517    0.0000 C   0  0  0  0  0  0  0  0  0  0  0  0
   -2.0452   -4.9376    0.0000 O   0  0  0  0  0  0  0  0  0  0  0  0
   -0.0000   -3.8444    0.0000 C   0  0  0  0  0  0  0  0  0  0  0  0
    1.4712   -3.5517    0.0000 C   0  0  0  0  0  0  0  0  0  0  0  0
    2.0452   -4.9376    0.0000 O   0  0  0  0  0  0  0  0  0  0  0  0
    3.5324   -5.1333    0.0000 C   0  0  0  0  0  0  0  0  0  0  0  0
    4.1064   -6.5192    0.0000 C   0  0  0  0  0  0  0  0  0  0  0  0
    4.7063   -4.1996    0.0000 O   0  0  0  0  0  0  0  0  0  0  0  0
  1  2  1  0
  3  2  1  1
  3  4  1  0
  4  5  1  6
  6  5  1  1
  6  7  1  0
  7  8  1  0
  8  9  1  1
  8 10  1  0
 10 11  1  6
 12 11  1  6
 12 13  1  0
 13 14  1  0
 14 15  1  1
 14 16  1  0
 14 17  1  0
 17 18  1  6
 18 19  1  0
 19 20  2  0
 19 21  1  0
 21 22  1  0
 22 23  1  0
 22 24  1  0
 17 25  1  0
 25 26  1  1
 25 27  1  0
 10 28  1  0
 28 29  1  1
 29 30  1  0
 29 31  1  0
 28 32  1  0
 32 33  1  6
 33 34  1  0
 34 35  1  0
 34 36  2  0
  4 37  1  0
 37 38  1  6
 38 39  1  0
 39 40  2  0
 37 41  1  0
 41 42  1  0
 42 43  1  6
 42 44  1  0
 44 45  1  6
 44 46  1  0
 46 47  2  0
 47 48  1  0
 48 49  2  0
 49 50  1  0
 50 51  1  0
 51 52  1  6
 51 53  1  0
 53 54  1  0
 54 55  2  0
 54 56  1  0
 56 57  1  0
 57 58  1  6
 58 59  1  0
 59 60  1  0
 59 61  2  0
 57  3  1  0
 32  6  1  0
 27 12  1  0
M  END
>  <ChEMBL_IDs>  (82) 
CHEMBL3251857

>  <target_organism>  (82) 
None

>  <target_molecule_pref_name>  (82) 
None

>  <# Known Targets>  (82) 
1.0

>  <Known Targets>  (82) 
CHEMBL612545

>  <smiles>  (82) 
CO[C@@H]1[C@@H](O[C@@H]2O[C@H](C)[C@@H](O[C@H]3C[C@@](C)(O)[C@@H](OC(=O)CC(C)C)[C@H](C)O3)[C@H](N(C)C)[C@H]2OC(C)=O)[C@@H](CC=O)C[C@@H](C)[C@@H](O)/C=C/C=C/C[C@@H](C)OC(=O)C[C@H]1OC(C)=O

$$$$

     RDKit          2D

 61 63  0  0  0  0  0  0  0  0999 V2000
    6.0944   -1.2990    0.0000 C   0  0  0  0  0  0  0  0  0  0  0  0
    5.3444    0.0000    0.0000 O   0  0  0  0  0  0  0  0  0  0  0  0
    3.8444    0.0000    0.0000 C   0  0  0  0  0  0  0  0  0  0  0  0
    3.5517   -1.4712    0.0000 C   0  0  0  0  0  0  0  0  0  0  0  0
    4.9376   -2.0452    0.0000 O   0  0  0  0  0  0  0  0  0  0  0  0
    5.1333   -3.5324    0.0000 C   0  0  0  0  0  0  0  0  0  0  0  0
    3.9433   -4.4455    0.0000 O   0  0  0  0  0  0  0  0  0  0  0  0
    4.1391   -5.9327    0.0000 C   0  0  0  0  0  0  0  0  0  0  0  0
    2.9491   -6.8458    0.0000 C   0  0  0  0  0  0  0  0  0  0  0  0
    5.5249   -6.5067    0.0000 C   0  0  0  0  0  0  0  0  0  0  0  0
    5.7207   -7.9939    0.0000 O   0  0  0  0  0  0  0  0  0  0  0  0
    4.5307   -8.9070    0.0000 C   0  0  0  0  0  0  0  0  0  0  0  0
    3.1449   -8.3330    0.0000 C   0  0  0  0  0  0  0  0  0  0  0  0
    1.9548   -9.2461    0.0000 C   0  0  0  0  0  0  0  0  0  0  0  0
    0.5243   -9.6972    0.0000 C   0  0  0  0  0  0  0  0  0  0  0  0
    1.2622   -7.9156    0.0000 O   0  0  0  0  0  0  0  0  0  0  0  0
    2.1506  -10.7333    0.0000 C   0  0  0  0  0  0  0  0  0  0  0  0
    0.9606  -11.6464    0.0000 O   0  0  0  0  0  0  0  0  0  0  0  0
    1.1564  -13.1336    0.0000 C   0  0  0  0  0  0  0  0  0  0  0  0
    2.5422  -13.7076    0.0000 O   0  0  0  0  0  0  0  0  0  0  0  0
   -0.0336  -14.0468    0.0000 C   0  0  0  0  0  0  0  0  0  0  0  0
    0.1621  -15.5339    0.0000 C   0  0  0  0  0  0  0  0  0  0  0  0
   -1.0279  -16.4471    0.0000 C   0  0  0  0  0  0  0  0  0  0  0  0
    1.5480  -16.1079    0.0000 C   0  0  0  0  0  0  0  0  0  0  0  0
    3.5364  -11.3073    0.0000 C   0  0  0  0  0  0  0  0  0  0  0  0
    3.7322  -12.7945    0.0000 C   0  0  0  0  0  0  0  0  0  0  0  0
    4.7265  -10.3942    0.0000 O   0  0  0  0  0  0  0  0  0  0  0  0
    6.7150   -5.5936    0.0000 C   0  0  0  0  0  0  0  0  0  0  0  0
    8.1008   -6.1676    0.0000 N   0  0  0  0  0  0  0  0  0  0  0  0
    8.2966   -7.6548    0.0000 C   0  0  0  0  0  0  0  0  0  0  0  0
    9.2908   -5.2544    0.0000 C   0  0  0  0  0  0  0  0  0  0  0  0
    6.5192   -4.1064    0.0000 C   0  0  0  0  0  0  0  0  0  0  0  0
    7.7092   -3.1933    0.0000 O   0  0  0  0  0  0  0  0  0  0  0  0
    2.7184   -2.7184    0.0000 C   0  0  0  0  0  0  0  0  0  0  0  0
    3.7790   -3.7790    0.0000 C   0  0  0  0  0  0  0  0  0  0  0  0
    3.3908   -5.2279    0.0000 C   0  0  0  0  0  0  0  0  0  0  0  0
    4.1633   -6.5137    0.0000 O   0  0  0  0  0  0  0  0  0  0  0  0
    1.4712   -3.5517    0.0000 C   0  0  0  0  0  0  0  0  0  0  0  0
   -0.0000   -3.8444    0.0000 C   0  0  0  0  0  0  0  0  0  0  0  0
   -0.0000   -5.3444    0.0000 C   0  0  0  0  0  0  0  0  0  0  0  0
   -1.4712   -3.5517    0.0000 C   0  0  0  0  0  0  0  0  0  0  0  0
   -2.0452   -4.9376    0.0000 O   0  0  0  0  0  0  0  0  0  0  0  0
   -3.5324   -5.1333    0.0000 C   0  0  0  0  0  0  0  0  0  0  0  0
   -4.1064   -6.5192    0.0000 C   0  0  0  0  0  0  0  0  0  0  0  0
   -4.4455   -3.9433    0.0000 O   0  0  0  0  0  0  0  0  0  0  0  0
   -2.7184   -2.7184    0.0000 C   0  0  0  0  0  0  0  0  0  0  0  0
   -3.5517   -1.4712    0.0000 C   0  0  0  0  0  0  0  0  0  0  0  0
   -3.8444    0.0000    0.0000 C   0  0  0  0  0  0  0  0  0  0  0  0
   -3.5517    1.4712    0.0000 C   0  0  0  0  0  0  0  0  0  0  0  0
   -2.7184    2.7184    0.0000 C   0  0  0  0  0  0  0  0  0  0  0  0
   -1.4712    3.5517    0.0000 C   0  0  0  0  0  0  0  0  0  0  0  0
   -2.0452    4.9376    0.0000 C   0  0  0  0  0  0  0  0  0  0  0  0
    0.0000    3.8444    0.0000 O   0  0  0  0  0  0  0  0  0  0  0  0
    1.4712    3.5517    0.0000 C   0  0  0  0  0  0  0  0  0  0  0  0
    2.0452    4.9376    0.0000 O   0  0  0  0  0  0  0  0  0  0  0  0
    2.7184    2.7184    0.0000 C   0  0  0  0  0  0  0  0  0  0  0  0
    3.5517    1.4712    0.0000 C   0  0  0  0  0  0  0  0  0  0  0  0
    4.9376    2.0452    0.0000 O   0  0  0  0  0  0  0  0  0  0  0  0
    6.1276    1.1321    0.0000 C   0  0  0  0  0  0  0  0  0  0  0  0
    7.5134    1.7061    0.0000 C   0  0  0  0  0  0  0  0  0  0  0  0
    6.2975   -0.3583    0.0000 O   0  0  0  0  0  0  0  0  0  0  0  0
  1  2  1  0
  3  2  1  6
  3  4  1  0
  4  5  1  1
  6  5  1  1
  6  7  1  0
  7  8  1  0
  8  9  1  1
  8 10  1  0
 10 11  1  6
 12 11  1  6
 12 13  1  0
 13 14  1  0
 14 15  1  1
 14 16  1  0
 14 17  1  0
 17 18  1  6
 18 19  1  0
 19 20  2  0
 19 21  1  0
 21 22  1  0
 22 23  1  0
 22 24  1  0
 17 25  1  0
 25 26  1  1
 25 27  1  0
 10 28  1  0
 28 29  1  1
 29 30  1  0
 29 31  1  0
 28 32  1  0
 32 33  1  6
  4 34  1  0
 34 35  1  1
 35 36  1  0
 36 37  2  0
 34 38  1  0
 38 39  1  0
 39 40  1  1
 39 41  1  0
 41 42  1  1
 42 43  1  0
 43 44  1  0
 43 45  2  0
 41 46  1  0
 46 47  2  0
 47 48  1  0
 48 49  2  0
 49 50  1  0
 50 51  1  0
 51 52  1  1
 51 53  1  0
 53 54  1  0
 54 55  2  0
 54 56  1  0
 56 57  1  0
 57 58  1  1
 58 59  1  0
 59 60  1  0
 59 61  2  0
 57  3  1  0
 32  6  1  0
 27 12  1  0
M  END
>  <ChEMBL_IDs>  (83) 
CHEMBL3251861

>  <target_organism>  (83) 
None

>  <target_molecule_pref_name>  (83) 
None

>  <# Known Targets>  (83) 
1.0

>  <Known Targets>  (83) 
CHEMBL612545

>  <smiles>  (83) 
CO[C@@H]1[C@@H](O[C@@H]2O[C@H](C)[C@@H](O[C@H]3C[C@@](C)(O)[C@@H](OC(=O)CC(C)C)[C@H](C)O3)[C@H](N(C)C)[C@H]2O)[C@@H](CC=O)C[C@@H](C)[C@@H](OC(C)=O)/C=C/C=C/C[C@@H](C)OC(=O)C[C@H]1OC(C)=O

$$$$

     RDKit          2D

 63 65  0  0  0  0  0  0  0  0999 V2000
    9.8444   -2.5981    0.0000 C   0  0  0  0  0  0  0  0  0  0  0  0
    8.3444   -2.5981    0.0000 C   0  0  0  0  0  0  0  0  0  0  0  0
    7.5944   -1.2990    0.0000 C   0  0  0  0  0  0  0  0  0  0  0  0
    6.0944   -1.2990    0.0000 C   0  0  0  0  0  0  0  0  0  0  0  0
    5.3444   -2.5981    0.0000 O   0  0  0  0  0  0  0  0  0  0  0  0
    5.3444    0.0000    0.0000 O   0  0  0  0  0  0  0  0  0  0  0  0
    3.8444    0.0000    0.0000 C   0  0  0  0  0  0  0  0  0  0  0  0
    3.5517   -1.4712    0.0000 C   0  0  0  0  0  0  0  0  0  0  0  0
    2.7184   -2.7184    0.0000 C   0  0  0  0  0  0  0  0  0  0  0  0
    1.4712   -3.5517    0.0000 C   0  0  0  0  0  0  0  0  0  0  0  0
   -0.0000   -3.8444    0.0000 C   0  0  0  0  0  0  0  0  0  0  0  0
   -1.4712   -3.5517    0.0000 C   0  0  0  0  0  0  0  0  0  0  0  0
   -2.7184   -2.7184    0.0000 C   0  0  0  0  0  0  0  0  0  0  0  0
   -3.7790   -3.7790    0.0000 C   0  0  0  0  0  0  0  0  0  0  0  0
   -3.5517   -1.4712    0.0000 O   0  0  0  0  0  0  0  0  0  0  0  0
   -3.8444    0.0000    0.0000 C   0  0  0  0  0  0  0  0  0  0  0  0
   -5.3444    0.0000    0.0000 O   0  0  0  0  0  0  0  0  0  0  0  0
   -3.5517    1.4712    0.0000 C   0  0  0  0  0  0  0  0  0  0  0  0
   -2.7184    2.7184    0.0000 C   0  0  0  0  0  0  0  0  0  0  0  0
   -3.7790    3.7790    0.0000 O   0  0  0  0  0  0  0  0  0  0  0  0
   -5.2279    3.3908    0.0000 C   0  0  0  0  0  0  0  0  0  0  0  0
   -6.2886    4.4515    0.0000 C   0  0  0  0  0  0  0  0  0  0  0  0
   -5.6162    1.9419    0.0000 O   0  0  0  0  0  0  0  0  0  0  0  0
   -1.4712    3.5517    0.0000 C   0  0  0  0  0  0  0  0  0  0  0  0
   -2.0452    4.9376    0.0000 O   0  0  0  0  0  0  0  0  0  0  0  0
   -1.1321    6.1276    0.0000 C   0  0  0  0  0  0  0  0  0  0  0  0
    0.0000    3.8444    0.0000 C   0  0  0  0  0  0  0  0  0  0  0  0
    0.0000    5.3444    0.0000 O   0  0  0  0  0  0  0  0  0  0  0  0
    1.2990    6.0944    0.0000 C   0  0  0  0  0  0  0  0  0  0  0  0
    2.5981    5.3444    0.0000 O   0  0  0  0  0  0  0  0  0  0  0  0
    3.8971    6.0944    0.0000 C   0  0  0  0  0  0  0  0  0  0  0  0
    5.1962    5.3444    0.0000 C   0  0  0  0  0  0  0  0  0  0  0  0
    3.8971    7.5944    0.0000 C   0  0  0  0  0  0  0  0  0  0  0  0
    5.1962    8.3444    0.0000 O   0  0  0  0  0  0  0  0  0  0  0  0
    6.4952    7.5944    0.0000 C   0  0  0  0  0  0  0  0  0  0  0  0
    6.4952    6.0944    0.0000 C   0  0  0  0  0  0  0  0  0  0  0  0
    7.7942    5.3444    0.0000 C   0  0  0  0  0  0  0  0  0  0  0  0
    8.7584    4.1953    0.0000 C   0  0  0  0  0  0  0  0  0  0  0  0
    6.8300    4.1953    0.0000 O   0  0  0  0  0  0  0  0  0  0  0  0
    9.0933    6.0944    0.0000 C   0  0  0  0  0  0  0  0  0  0  0  0
   10.3923    5.3444    0.0000 O   0  0  0  0  0  0  0  0  0  0  0  0
   11.6913    6.0944    0.0000 C   0  0  0  0  0  0  0  0  0  0  0  0
   11.6913    7.5944    0.0000 O   0  0  0  0  0  0  0  0  0  0  0  0
   12.9904    5.3444    0.0000 C   0  0  0  0  0  0  0  0  0  0  0  0
   14.2894    6.0944    0.0000 C   0  0  0  0  0  0  0  0  0  0  0  0
   15.5885    5.3444    0.0000 C   0  0  0  0  0  0  0  0  0  0  0  0
   14.2894    7.5944    0.0000 C   0  0  0  0  0  0  0  0  0  0  0  0
    9.0933    7.5944    0.0000 C   0  0  0  0  0  0  0  0  0  0  0  0
   10.3923    8.3444    0.0000 C   0  0  0  0  0  0  0  0  0  0  0  0
    7.7942    8.3444    0.0000 O   0  0  0  0  0  0  0  0  0  0  0  0
    2.5981    8.3444    0.0000 C   0  0  0  0  0  0  0  0  0  0  0  0
    2.5981    9.8444    0.0000 N   0  0  0  0  0  0  0  0  0  0  0  0
    3.8971   10.5944    0.0000 C   0  0  0  0  0  0  0  0  0  0  0  0
    1.2990   10.5944    0.0000 C   0  0  0  0  0  0  0  0  0  0  0  0
    1.2990    7.5944    0.0000 C   0  0  0  0  0  0  0  0  0  0  0  0
    0.0000    8.3444    0.0000 O   0  0  0  0  0  0  0  0  0  0  0  0
    1.4712    3.5517    0.0000 C   0  0  0  0  0  0  0  0  0  0  0  0
    2.0452    4.9376    0.0000 C   0  0  0  0  0  0  0  0  0  0  0  0
    3.5324    5.1333    0.0000 C   0  0  0  0  0  0  0  0  0  0  0  0
    4.4247    6.3391    0.0000 O   0  0  0  0  0  0  0  0  0  0  0  0
    2.7184    2.7184    0.0000 C   0  0  0  0  0  0  0  0  0  0  0  0
    3.5517    1.4712    0.0000 C   0  0  0  0  0  0  0  0  0  0  0  0
    4.9376    2.0452    0.0000 C   0  0  0  0  0  0  0  0  0  0  0  0
  1  2  1  0
  2  3  1  0
  3  4  1  0
  4  5  2  0
  4  6  1  0
  7  6  1  1
  7  8  1  0
  8  9  2  0
  9 10  1  0
 10 11  2  0
 11 12  1  0
 12 13  1  0
 13 14  1  1
 13 15  1  0
 15 16  1  0
 16 17  2  0
 16 18  1  0
 18 19  1  0
 19 20  1  1
 20 21  1  0
 21 22  1  0
 21 23  2  0
 19 24  1  0
 24 25  1  6
 25 26  1  0
 24 27  1  0
 27 28  1  1
 29 28  1  1
 29 30  1  0
 30 31  1  0
 31 32  1  1
 31 33  1  0
 33 34  1  6
 35 34  1  6
 35 36  1  0
 36 37  1  0
 37 38  1  1
 37 39  1  0
 37 40  1  0
 40 41  1  6
 41 42  1  0
 42 43  2  0
 42 44  1  0
 44 45  1  0
 45 46  1  0
 45 47  1  0
 40 48  1  0
 48 49  1  1
 48 50  1  0
 33 51  1  0
 51 52  1  1
 52 53  1  0
 52 54  1  0
 51 55  1  0
 55 56  1  6
 27 57  1  0
 57 58  1  1
 58 59  1  0
 59 60  2  0
 57 61  1  0
 61 62  1  0
 62 63  1  1
 62  7  1  0
 55 29  1  0
 50 35  1  0
M  END
>  <ChEMBL_IDs>  (84) 
CHEMBL3251863

>  <target_organism>  (84) 
None

>  <target_molecule_pref_name>  (84) 
None

>  <# Known Targets>  (84) 
1.0

>  <Known Targets>  (84) 
CHEMBL612545

>  <smiles>  (84) 
CCCC(=O)O[C@H]1/C=C/C=C/C[C@@H](C)OC(=O)C[C@@H](OC(C)=O)[C@H](OC)[C@@H](O[C@@H]2O[C@H](C)[C@@H](O[C@H]3C[C@@](C)(O)[C@@H](OC(=O)CC(C)C)[C@H](C)O3)[C@H](N(C)C)[C@H]2O)[C@@H](CC=O)C[C@H]1C

$$$$

     RDKit          2D

 61 63  0  0  0  0  0  0  0  0999 V2000
   18.4042   -4.8111    0.0000 C   0  0  0  0  0  0  0  0  0  0  0  0
   17.0184   -4.2371    0.0000 C   0  0  0  0  0  0  0  0  0  0  0  0
   16.8226   -2.7499    0.0000 C   0  0  0  0  0  0  0  0  0  0  0  0
   15.4367   -2.1759    0.0000 C   0  0  0  0  0  0  0  0  0  0  0  0
   14.2467   -3.0890    0.0000 O   0  0  0  0  0  0  0  0  0  0  0  0
   15.2410   -0.6887    0.0000 O   0  0  0  0  0  0  0  0  0  0  0  0
   13.8551   -0.1147    0.0000 C   0  0  0  0  0  0  0  0  0  0  0  0
   12.6651   -1.0279    0.0000 C   0  0  0  0  0  0  0  0  0  0  0  0
   12.8609   -2.5150    0.0000 C   0  0  0  0  0  0  0  0  0  0  0  0
   11.2793   -0.4538    0.0000 O   0  0  0  0  0  0  0  0  0  0  0  0
   11.0835    1.0333    0.0000 C   0  0  0  0  0  0  0  0  0  0  0  0
    9.6977    1.6074    0.0000 O   0  0  0  0  0  0  0  0  0  0  0  0
    8.5076    0.6942    0.0000 C   0  0  0  0  0  0  0  0  0  0  0  0
    7.1218    1.2682    0.0000 C   0  0  0  0  0  0  0  0  0  0  0  0
    6.9260    2.7554    0.0000 N   0  0  0  0  0  0  0  0  0  0  0  0
    8.1161    3.6686    0.0000 C   0  0  0  0  0  0  0  0  0  0  0  0
    5.5402    3.3294    0.0000 C   0  0  0  0  0  0  0  0  0  0  0  0
    5.9318    0.3551    0.0000 C   0  0  0  0  0  0  0  0  0  0  0  0
    4.5460    0.9291    0.0000 O   0  0  0  0  0  0  0  0  0  0  0  0
    3.3559    0.0160    0.0000 C   0  0  0  0  0  0  0  0  0  0  0  0
    1.9701    0.5900    0.0000 O   0  0  0  0  0  0  0  0  0  0  0  0
    3.5517   -1.4712    0.0000 C   0  0  0  0  0  0  0  0  0  0  0  0
    2.1761   -2.0692    0.0000 C   0  0  0  0  0  0  0  0  0  0  0  0
    6.1276   -1.1321    0.0000 C   0  0  0  0  0  0  0  0  0  0  0  0
    4.9376   -2.0452    0.0000 O   0  0  0  0  0  0  0  0  0  0  0  0
    5.1333   -3.5324    0.0000 C   0  0  0  0  0  0  0  0  0  0  0  0
    6.6301   -3.6305    0.0000 C   0  0  0  0  0  0  0  0  0  0  0  0
    7.0184   -2.1816    0.0000 O   0  0  0  0  0  0  0  0  0  0  0  0
    6.6078   -1.4983    0.0000 C   0  0  0  0  0  0  0  0  0  0  0  0
    7.9754   -4.2939    0.0000 C   0  0  0  0  0  0  0  0  0  0  0  0
    8.8886   -3.1039    0.0000 O   0  0  0  0  0  0  0  0  0  0  0  0
    8.3146   -1.7181    0.0000 C   0  0  0  0  0  0  0  0  0  0  0  0
    9.4885   -0.7844    0.0000 C   0  0  0  0  0  0  0  0  0  0  0  0
    6.8274   -1.5223    0.0000 O   0  0  0  0  0  0  0  0  0  0  0  0
    8.9645   -5.4217    0.0000 C   0  0  0  0  0  0  0  0  0  0  0  0
    9.4466   -6.8421    0.0000 C   0  0  0  0  0  0  0  0  0  0  0  0
   10.9338   -6.6463    0.0000 O   0  0  0  0  0  0  0  0  0  0  0  0
    9.3485   -8.3389    0.0000 O   0  0  0  0  0  0  0  0  0  0  0  0
    8.6851   -9.6842    0.0000 C   0  0  0  0  0  0  0  0  0  0  0  0
    9.8751  -10.5973    0.0000 C   0  0  0  0  0  0  0  0  0  0  0  0
    7.5573  -10.6732    0.0000 C   0  0  0  0  0  0  0  0  0  0  0  0
    6.1369  -11.1553    0.0000 C   0  0  0  0  0  0  0  0  0  0  0  0
    4.6401  -11.0572    0.0000 C   0  0  0  0  0  0  0  0  0  0  0  0
    3.2948  -10.3938    0.0000 C   0  0  0  0  0  0  0  0  0  0  0  0
    2.3058   -9.2660    0.0000 C   0  0  0  0  0  0  0  0  0  0  0  0
    1.8237   -7.8456    0.0000 C   0  0  0  0  0  0  0  0  0  0  0  0
    0.3365   -8.0414    0.0000 O   0  0  0  0  0  0  0  0  0  0  0  0
    1.9218   -6.3489    0.0000 C   0  0  0  0  0  0  0  0  0  0  0  0
    0.4729   -5.9606    0.0000 C   0  0  0  0  0  0  0  0  0  0  0  0
    2.5852   -5.0035    0.0000 C   0  0  0  0  0  0  0  0  0  0  0  0
    3.7130   -4.0145    0.0000 C   0  0  0  0  0  0  0  0  0  0  0  0
    2.9630   -2.7155    0.0000 C   0  0  0  0  0  0  0  0  0  0  0  0
    1.4630   -2.7155    0.0000 C   0  0  0  0  0  0  0  0  0  0  0  0
    0.7130   -1.4165    0.0000 O   0  0  0  0  0  0  0  0  0  0  0  0
    7.5134   -1.7061    0.0000 O   0  0  0  0  0  0  0  0  0  0  0  0
    8.7034   -0.7929    0.0000 C   0  0  0  0  0  0  0  0  0  0  0  0
   10.0893   -1.3670    0.0000 C   0  0  0  0  0  0  0  0  0  0  0  0
   12.2735    1.9465    0.0000 C   0  0  0  0  0  0  0  0  0  0  0  0
   13.6593    1.3725    0.0000 C   0  0  0  0  0  0  0  0  0  0  0  0
   13.9840    2.8369    0.0000 C   0  0  0  0  0  0  0  0  0  0  0  0
   15.1579    1.3070    0.0000 O   0  0  0  0  0  0  0  0  0  0  0  0
  1  2  1  0
  2  3  1  0
  3  4  1  0
  4  5  2  0
  4  6  1  0
  7  6  1  1
  7  8  1  0
  8  9  1  6
  8 10  1  0
 10 11  1  0
 11 12  1  1
 13 12  1  6
 13 14  1  0
 14 15  1  1
 15 16  1  0
 15 17  1  0
 14 18  1  0
 18 19  1  6
 19 20  1  0
 20 21  2  0
 20 22  1  0
 22 23  1  0
 18 24  1  0
 24 25  1  1
 26 25  1  6
 26 27  1  0
 27 28  1  1
 28 29  1  0
 27 30  1  0
 30 31  1  6
 31 32  1  0
 32 33  1  0
 32 34  2  0
 30 35  1  0
 35 36  1  0
 36 37  2  0
 36 38  1  0
 38 39  1  0
 39 40  1  6
 39 41  1  0
 41 42  1  0
 42 43  2  0
 43 44  1  0
 44 45  2  0
 45 46  1  0
 46 47  1  6
 46 48  1  0
 48 49  1  6
 48 50  1  0
 50 51  1  0
 51 52  1  6
 52 53  1  0
 53 54  2  0
 24 55  1  0
 55 56  1  0
 56 57  1  1
 11 58  1  0
 58 59  1  0
 59 60  1  6
 59 61  1  0
 59  7  1  0
 56 13  1  0
 51 26  1  0
M  END
>  <ChEMBL_IDs>  (85) 
CHEMBL3251860

>  <target_organism>  (85) 
None

>  <target_molecule_pref_name>  (85) 
None

>  <# Known Targets>  (85) 
1.0

>  <Known Targets>  (85) 
CHEMBL612545

>  <smiles>  (85) 
CCCC(=O)O[C@H]1[C@H](C)O[C@@H](O[C@H]2[C@H](N(C)C)[C@@H](OC(=O)CC)[C@H](O[C@@H]3[C@@H](OC)[C@H](OC(C)=O)CC(=O)O[C@H](C)C/C=C/C=C/[C@H](O)[C@H](C)C[C@@H]3CC=O)O[C@@H]2C)C[C@@]1(C)O

$$$$

     RDKit          2D

 62 64  0  0  0  0  0  0  0  0999 V2000
    6.0944   -1.2990    0.0000 C   0  0  0  0  0  0  0  0  0  0  0  0
    5.3444    0.0000    0.0000 O   0  0  0  0  0  0  0  0  0  0  0  0
    3.8444    0.0000    0.0000 C   0  0  0  0  0  0  0  0  0  0  0  0
    3.5517   -1.4712    0.0000 C   0  0  0  0  0  0  0  0  0  0  0  0
    4.9376   -2.0452    0.0000 O   0  0  0  0  0  0  0  0  0  0  0  0
    5.1333   -3.5324    0.0000 C   0  0  0  0  0  0  0  0  0  0  0  0
    3.9433   -4.4455    0.0000 O   0  0  0  0  0  0  0  0  0  0  0  0
    4.1391   -5.9327    0.0000 C   0  0  0  0  0  0  0  0  0  0  0  0
    2.9491   -6.8458    0.0000 C   0  0  0  0  0  0  0  0  0  0  0  0
    5.5249   -6.5067    0.0000 C   0  0  0  0  0  0  0  0  0  0  0  0
    5.7207   -7.9939    0.0000 O   0  0  0  0  0  0  0  0  0  0  0  0
    4.5307   -8.9070    0.0000 C   0  0  0  0  0  0  0  0  0  0  0  0
    3.1449   -8.3330    0.0000 C   0  0  0  0  0  0  0  0  0  0  0  0
    1.9548   -9.2461    0.0000 C   0  0  0  0  0  0  0  0  0  0  0  0
    0.5243   -9.6972    0.0000 C   0  0  0  0  0  0  0  0  0  0  0  0
    1.2622   -7.9156    0.0000 O   0  0  0  0  0  0  0  0  0  0  0  0
    2.1506  -10.7333    0.0000 C   0  0  0  0  0  0  0  0  0  0  0  0
    0.9606  -11.6464    0.0000 O   0  0  0  0  0  0  0  0  0  0  0  0
    1.1564  -13.1336    0.0000 C   0  0  0  0  0  0  0  0  0  0  0  0
    2.5422  -13.7076    0.0000 O   0  0  0  0  0  0  0  0  0  0  0  0
   -0.0336  -14.0468    0.0000 C   0  0  0  0  0  0  0  0  0  0  0  0
    0.1621  -15.5339    0.0000 C   0  0  0  0  0  0  0  0  0  0  0  0
   -1.0279  -16.4471    0.0000 C   0  0  0  0  0  0  0  0  0  0  0  0
    1.5480  -16.1079    0.0000 C   0  0  0  0  0  0  0  0  0  0  0  0
    3.5364  -11.3073    0.0000 C   0  0  0  0  0  0  0  0  0  0  0  0
    3.7322  -12.7945    0.0000 C   0  0  0  0  0  0  0  0  0  0  0  0
    4.7265  -10.3942    0.0000 O   0  0  0  0  0  0  0  0  0  0  0  0
    6.7150   -5.5936    0.0000 C   0  0  0  0  0  0  0  0  0  0  0  0
    8.1008   -6.1676    0.0000 N   0  0  0  0  0  0  0  0  0  0  0  0
    8.2966   -7.6548    0.0000 C   0  0  0  0  0  0  0  0  0  0  0  0
    9.2908   -5.2544    0.0000 C   0  0  0  0  0  0  0  0  0  0  0  0
    6.5192   -4.1064    0.0000 C   0  0  0  0  0  0  0  0  0  0  0  0
    7.7092   -3.1933    0.0000 O   0  0  0  0  0  0  0  0  0  0  0  0
    2.7184   -2.7184    0.0000 C   0  0  0  0  0  0  0  0  0  0  0  0
    3.7790   -3.7790    0.0000 C   0  0  0  0  0  0  0  0  0  0  0  0
    3.3908   -5.2279    0.0000 C   0  0  0  0  0  0  0  0  0  0  0  0
    4.1633   -6.5137    0.0000 O   0  0  0  0  0  0  0  0  0  0  0  0
    1.4712   -3.5517    0.0000 C   0  0  0  0  0  0  0  0  0  0  0  0
   -0.0000   -3.8444    0.0000 C   0  0  0  0  0  0  0  0  0  0  0  0
   -0.0000   -5.3444    0.0000 C   0  0  0  0  0  0  0  0  0  0  0  0
   -1.4712   -3.5517    0.0000 C   0  0  0  0  0  0  0  0  0  0  0  0
   -2.0452   -4.9376    0.0000 O   0  0  0  0  0  0  0  0  0  0  0  0
   -3.5324   -5.1333    0.0000 C   0  0  0  0  0  0  0  0  0  0  0  0
   -4.4455   -3.9433    0.0000 O   0  0  0  0  0  0  0  0  0  0  0  0
   -4.1064   -6.5192    0.0000 C   0  0  0  0  0  0  0  0  0  0  0  0
   -5.5936   -6.7150    0.0000 Cl  0  0  0  0  0  0  0  0  0  0  0  0
   -2.7184   -2.7184    0.0000 C   0  0  0  0  0  0  0  0  0  0  0  0
   -3.5517   -1.4712    0.0000 C   0  0  0  0  0  0  0  0  0  0  0  0
   -3.8444    0.0000    0.0000 C   0  0  0  0  0  0  0  0  0  0  0  0
   -3.5517    1.4712    0.0000 C   0  0  0  0  0  0  0  0  0  0  0  0
   -2.7184    2.7184    0.0000 C   0  0  0  0  0  0  0  0  0  0  0  0
   -1.4712    3.5517    0.0000 C   0  0  0  0  0  0  0  0  0  0  0  0
   -2.0452    4.9376    0.0000 C   0  0  0  0  0  0  0  0  0  0  0  0
    0.0000    3.8444    0.0000 O   0  0  0  0  0  0  0  0  0  0  0  0
    1.4712    3.5517    0.0000 C   0  0  0  0  0  0  0  0  0  0  0  0
    2.0452    4.9376    0.0000 O   0  0  0  0  0  0  0  0  0  0  0  0
    2.7184    2.7184    0.0000 C   0  0  0  0  0  0  0  0  0  0  0  0
    3.5517    1.4712    0.0000 C   0  0  0  0  0  0  0  0  0  0  0  0
    4.9376    2.0452    0.0000 O   0  0  0  0  0  0  0  0  0  0  0  0
    6.1276    1.1321    0.0000 C   0  0  0  0  0  0  0  0  0  0  0  0
    7.5134    1.7061    0.0000 C   0  0  0  0  0  0  0  0  0  0  0  0
    6.2975   -0.3583    0.0000 O   0  0  0  0  0  0  0  0  0  0  0  0
  1  2  1  0
  3  2  1  6
  3  4  1  0
  4  5  1  1
  6  5  1  1
  6  7  1  0
  7  8  1  0
  8  9  1  1
  8 10  1  0
 10 11  1  6
 12 11  1  6
 12 13  1  0
 13 14  1  0
 14 15  1  1
 14 16  1  0
 14 17  1  0
 17 18  1  6
 18 19  1  0
 19 20  2  0
 19 21  1  0
 21 22  1  0
 22 23  1  0
 22 24  1  0
 17 25  1  0
 25 26  1  1
 25 27  1  0
 10 28  1  0
 28 29  1  1
 29 30  1  0
 29 31  1  0
 28 32  1  0
 32 33  1  6
  4 34  1  0
 34 35  1  1
 35 36  1  0
 36 37  2  0
 34 38  1  0
 38 39  1  0
 39 40  1  1
 39 41  1  0
 41 42  1  1
 42 43  1  0
 43 44  2  0
 43 45  1  0
 45 46  1  0
 41 47  1  0
 47 48  2  0
 48 49  1  0
 49 50  2  0
 50 51  1  0
 51 52  1  0
 52 53  1  1
 52 54  1  0
 54 55  1  0
 55 56  2  0
 55 57  1  0
 57 58  1  0
 58 59  1  1
 59 60  1  0
 60 61  1  0
 60 62  2  0
 58  3  1  0
 32  6  1  0
 27 12  1  0
M  END
>  <ChEMBL_IDs>  (86) 
CHEMBL3244600

>  <target_organism>  (86) 
None

>  <target_molecule_pref_name>  (86) 
None

>  <# Known Targets>  (86) 
1.0

>  <Known Targets>  (86) 
CHEMBL612545

>  <smiles>  (86) 
CO[C@@H]1[C@@H](O[C@@H]2O[C@H](C)[C@@H](O[C@H]3C[C@@](C)(O)[C@@H](OC(=O)CC(C)C)[C@H](C)O3)[C@H](N(C)C)[C@H]2O)[C@@H](CC=O)C[C@@H](C)[C@@H](OC(=O)CCl)/C=C/C=C/C[C@@H](C)OC(=O)C[C@H]1OC(C)=O

$$$$

     RDKit          2D

 61 63  0  0  0  0  0  0  0  0999 V2000
   12.3705   -5.1962    0.0000 C   0  0  0  0  0  0  0  0  0  0  0  0
   11.6205   -3.8971    0.0000 C   0  0  0  0  0  0  0  0  0  0  0  0
   10.1205   -3.8971    0.0000 O   0  0  0  0  0  0  0  0  0  0  0  0
    9.3705   -2.5981    0.0000 C   0  0  0  0  0  0  0  0  0  0  0  0
   10.1205   -1.2990    0.0000 O   0  0  0  0  0  0  0  0  0  0  0  0
    7.8705   -2.5981    0.0000 N   0  0  0  0  0  0  0  0  0  0  0  0
    7.1205   -1.2990    0.0000 C   0  0  0  0  0  0  0  0  0  0  0  0
    5.6205   -1.2990    0.0000 C   0  0  0  0  0  0  0  0  0  0  0  0
    4.8705    0.0000    0.0000 O   0  0  0  0  0  0  0  0  0  0  0  0
    3.3705    0.0000    0.0000 C   0  0  0  0  0  0  0  0  0  0  0  0
    3.0367   -1.4624    0.0000 C   0  0  0  0  0  0  0  0  0  0  0  0
    4.3881   -2.1132    0.0000 C   0  0  0  0  0  0  0  0  0  0  0  0
    2.1015   -2.6351    0.0000 C   0  0  0  0  0  0  0  0  0  0  0  0
    0.7500   -3.2860    0.0000 C   0  0  0  0  0  0  0  0  0  0  0  0
    1.8496   -4.3062    0.0000 C   0  0  0  0  0  0  0  0  0  0  0  0
    0.2020   -4.6823    0.0000 O   0  0  0  0  0  0  0  0  0  0  0  0
   -0.7500   -3.2860    0.0000 C   0  0  0  0  0  0  0  0  0  0  0  0
   -1.0838   -4.7484    0.0000 O   0  0  0  0  0  0  0  0  0  0  0  0
    0.0158   -5.7686    0.0000 C   0  0  0  0  0  0  0  0  0  0  0  0
    1.4492   -5.3265    0.0000 O   0  0  0  0  0  0  0  0  0  0  0  0
    2.5487   -6.3467    0.0000 C   0  0  0  0  0  0  0  0  0  0  0  0
    3.9821   -5.9046    0.0000 C   0  0  0  0  0  0  0  0  0  0  0  0
    2.2150   -7.8091    0.0000 C   0  0  0  0  0  0  0  0  0  0  0  0
    0.7816   -8.2513    0.0000 C   0  0  0  0  0  0  0  0  0  0  0  0
    0.4478   -9.7137    0.0000 N   0  0  0  0  0  0  0  0  0  0  0  0
    1.5474  -10.7339    0.0000 C   0  0  0  0  0  0  0  0  0  0  0  0
   -0.9855  -10.1558    0.0000 C   0  0  0  0  0  0  0  0  0  0  0  0
   -1.3193  -11.6182    0.0000 C   0  0  0  0  0  0  0  0  0  0  0  0
   -2.0851   -9.1355    0.0000 C   0  0  0  0  0  0  0  0  0  0  0  0
   -0.3180   -7.2310    0.0000 C   0  0  0  0  0  0  0  0  0  0  0  0
   -1.7513   -7.6731    0.0000 O   0  0  0  0  0  0  0  0  0  0  0  0
   -2.1015   -2.6351    0.0000 C   0  0  0  0  0  0  0  0  0  0  0  0
   -3.0367   -3.8079    0.0000 C   0  0  0  0  0  0  0  0  0  0  0  0
   -3.0367   -1.4624    0.0000 C   0  0  0  0  0  0  0  0  0  0  0  0
   -4.3881   -2.1132    0.0000 O   0  0  0  0  0  0  0  0  0  0  0  0
   -5.6275   -1.2682    0.0000 C   0  0  0  0  0  0  0  0  0  0  0  0
   -6.9790   -1.9191    0.0000 C   0  0  0  0  0  0  0  0  0  0  0  0
   -8.2183   -1.0741    0.0000 C   0  0  0  0  0  0  0  0  0  0  0  0
   -9.6719   -0.7039    0.0000 C   0  0  0  0  0  0  0  0  0  0  0  0
   -8.8352   -2.4413    0.0000 O   0  0  0  0  0  0  0  0  0  0  0  0
  -10.3278   -2.5907    0.0000 C   0  0  0  0  0  0  0  0  0  0  0  0
   -8.1062    0.4217    0.0000 C   0  0  0  0  0  0  0  0  0  0  0  0
   -9.3456    1.2667    0.0000 O   0  0  0  0  0  0  0  0  0  0  0  0
   -6.7548    1.0725    0.0000 C   0  0  0  0  0  0  0  0  0  0  0  0
   -6.6427    2.5684    0.0000 C   0  0  0  0  0  0  0  0  0  0  0  0
   -5.5154    0.2276    0.0000 O   0  0  0  0  0  0  0  0  0  0  0  0
   -3.3705    0.0000    0.0000 C   0  0  0  0  0  0  0  0  0  0  0  0
   -4.6804    0.3267    0.0000 C   0  0  0  0  0  0  0  0  0  0  0  0
   -3.0367    1.4624    0.0000 C   0  0  0  0  0  0  0  0  0  0  0  0
   -4.3881    2.1132    0.0000 O   0  0  0  0  0  0  0  0  0  0  0  0
   -2.1015    2.6351    0.0000 O   0  0  0  0  0  0  0  0  0  0  0  0
   -0.7500    3.2860    0.0000 C   0  0  0  0  0  0  0  0  0  0  0  0
   -1.0838    4.7484    0.0000 C   0  0  0  0  0  0  0  0  0  0  0  0
    0.0158    5.7686    0.0000 C   0  0  0  0  0  0  0  0  0  0  0  0
    0.7500    3.2860    0.0000 C   0  0  0  0  0  0  0  0  0  0  0  0
    0.2020    4.6823    0.0000 C   0  0  0  0  0  0  0  0  0  0  0  0
    1.8496    4.3062    0.0000 O   0  0  0  0  0  0  0  0  0  0  0  0
    2.1015    2.6351    0.0000 C   0  0  0  0  0  0  0  0  0  0  0  0
    3.0367    3.8079    0.0000 O   0  0  0  0  0  0  0  0  0  0  0  0
    3.0367    1.4624    0.0000 C   0  0  0  0  0  0  0  0  0  0  0  0
    4.3881    2.1132    0.0000 C   0  0  0  0  0  0  0  0  0  0  0  0
  1  2  1  0
  2  3  1  0
  3  4  1  0
  4  5  2  0
  4  6  1  0
  6  7  1  0
  7  8  1  0
  8  9  1  0
 10  9  1  1
 10 11  1  0
 11 12  1  6
 11 13  1  0
 13 14  1  0
 14 15  1  6
 14 16  1  0
 14 17  1  0
 17 18  1  6
 19 18  1  6
 19 20  1  0
 20 21  1  0
 21 22  1  6
 21 23  1  0
 23 24  1  0
 24 25  1  6
 25 26  1  0
 25 27  1  0
 27 28  1  0
 27 29  1  0
 24 30  1  0
 30 31  1  1
 17 32  1  0
 32 33  1  1
 32 34  1  0
 34 35  1  6
 36 35  1  1
 36 37  1  0
 37 38  1  0
 38 39  1  6
 38 40  1  0
 40 41  1  0
 38 42  1  0
 42 43  1  1
 42 44  1  0
 44 45  1  6
 44 46  1  0
 34 47  1  0
 47 48  1  1
 47 49  1  0
 49 50  2  0
 49 51  1  0
 51 52  1  0
 52 53  1  6
 53 54  1  0
 52 55  1  0
 55 56  1  6
 55 57  1  0
 55 58  1  0
 58 59  1  6
 58 60  1  0
 60 61  1  1
 60 10  1  0
 30 19  1  0
 46 36  1  0
M  END
>  <ChEMBL_IDs>  (87) 
CHEMBL1269440

>  <target_organism>  (87) 
nan

>  <target_molecule_pref_name>  (87) 
None

>  <# Known Targets>  (87) 
1.0

>  <Known Targets>  (87) 
CHEMBL3879801

>  <smiles>  (87) 
CCOC(=O)NCCO[C@H]1[C@H](C)C[C@@](C)(O)[C@H](O[C@@H]2O[C@H](C)C[C@H](N(C)C(C)C)[C@H]2O)[C@@H](C)[C@H](O[C@H]2C[C@@](C)(OC)[C@@H](O)[C@H](C)O2)[C@@H](C)C(=O)O[C@H](CC)[C@@](C)(O)[C@H](O)[C@H]1C

$$$$

     RDKit          2D

 52 54  0  0  0  0  0  0  0  0999 V2000
    6.0944    1.2990    0.0000 C   0  0  0  0  0  0  0  0  0  0  0  0
    5.3444    0.0000    0.0000 O   0  0  0  0  0  0  0  0  0  0  0  0
    3.8444    0.0000    0.0000 C   0  0  0  0  0  0  0  0  0  0  0  0
    3.5517   -1.4712    0.0000 C   0  0  0  0  0  0  0  0  0  0  0  0
    4.9376   -2.0452    0.0000 O   0  0  0  0  0  0  0  0  0  0  0  0
    6.1276   -1.1321    0.0000 C   0  0  0  0  0  0  0  0  0  0  0  0
    5.9318    0.3551    0.0000 O   0  0  0  0  0  0  0  0  0  0  0  0
    7.1218    1.2682    0.0000 C   0  0  0  0  0  0  0  0  0  0  0  0
    6.9260    2.7554    0.0000 C   0  0  0  0  0  0  0  0  0  0  0  0
    8.5076    0.6942    0.0000 C   0  0  0  0  0  0  0  0  0  0  0  0
    9.6977    1.6074    0.0000 O   0  0  0  0  0  0  0  0  0  0  0  0
    9.5019    3.0945    0.0000 C   0  0  0  0  0  0  0  0  0  0  0  0
   10.6919    4.0077    0.0000 C   0  0  0  0  0  0  0  0  0  0  0  0
   10.4961    5.4948    0.0000 C   0  0  0  0  0  0  0  0  0  0  0  0
   10.8208    6.9593    0.0000 C   0  0  0  0  0  0  0  0  0  0  0  0
   11.9947    5.4294    0.0000 O   0  0  0  0  0  0  0  0  0  0  0  0
    9.1103    6.0689    0.0000 C   0  0  0  0  0  0  0  0  0  0  0  0
    8.9145    7.5560    0.0000 O   0  0  0  0  0  0  0  0  0  0  0  0
    7.9203    5.1557    0.0000 C   0  0  0  0  0  0  0  0  0  0  0  0
    6.5345    5.7298    0.0000 C   0  0  0  0  0  0  0  0  0  0  0  0
    8.1161    3.6686    0.0000 O   0  0  0  0  0  0  0  0  0  0  0  0
    8.7034   -0.7929    0.0000 C   0  0  0  0  0  0  0  0  0  0  0  0
   10.0893   -1.3670    0.0000 N   0  0  0  0  0  0  0  0  0  0  0  0
   11.2793   -0.4538    0.0000 C   0  0  0  0  0  0  0  0  0  0  0  0
   10.2850   -2.8541    0.0000 C   0  0  0  0  0  0  0  0  0  0  0  0
    7.5134   -1.7061    0.0000 C   0  0  0  0  0  0  0  0  0  0  0  0
    7.7092   -3.1933    0.0000 O   0  0  0  0  0  0  0  0  0  0  0  0
    2.7184   -2.7184    0.0000 C   0  0  0  0  0  0  0  0  0  0  0  0
    3.7790   -3.7790    0.0000 C   0  0  0  0  0  0  0  0  0  0  0  0
    3.3908   -5.2279    0.0000 C   0  0  0  0  0  0  0  0  0  0  0  0
    4.4515   -6.2886    0.0000 O   0  0  0  0  0  0  0  0  0  0  0  0
    1.4712   -3.5517    0.0000 C   0  0  0  0  0  0  0  0  0  0  0  0
   -0.0000   -3.8444    0.0000 C   0  0  0  0  0  0  0  0  0  0  0  0
   -0.0000   -5.3444    0.0000 C   0  0  0  0  0  0  0  0  0  0  0  0
   -1.4712   -3.5517    0.0000 C   0  0  0  0  0  0  0  0  0  0  0  0
   -2.0452   -4.9376    0.0000 O   0  0  0  0  0  0  0  0  0  0  0  0
   -3.5324   -5.1333    0.0000 C   0  0  0  0  0  0  0  0  0  0  0  0
   -4.1064   -6.5192    0.0000 C   0  0  0  0  0  0  0  0  0  0  0  0
   -4.4455   -3.9433    0.0000 O   0  0  0  0  0  0  0  0  0  0  0  0
   -2.7184   -2.7184    0.0000 C   0  0  0  0  0  0  0  0  0  0  0  0
   -3.5517   -1.4712    0.0000 C   0  0  0  0  0  0  0  0  0  0  0  0
   -3.8444    0.0000    0.0000 C   0  0  0  0  0  0  0  0  0  0  0  0
   -3.5517    1.4712    0.0000 C   0  0  0  0  0  0  0  0  0  0  0  0
   -2.7184    2.7184    0.0000 C   0  0  0  0  0  0  0  0  0  0  0  0
   -1.4712    3.5517    0.0000 C   0  0  0  0  0  0  0  0  0  0  0  0
   -2.0452    4.9376    0.0000 C   0  0  0  0  0  0  0  0  0  0  0  0
    0.0000    3.8444    0.0000 O   0  0  0  0  0  0  0  0  0  0  0  0
    1.4712    3.5517    0.0000 C   0  0  0  0  0  0  0  0  0  0  0  0
    2.0452    4.9376    0.0000 O   0  0  0  0  0  0  0  0  0  0  0  0
    2.7184    2.7184    0.0000 C   0  0  0  0  0  0  0  0  0  0  0  0
    3.5517    1.4712    0.0000 C   0  0  0  0  0  0  0  0  0  0  0  0
    4.9376    2.0452    0.0000 O   0  0  0  0  0  0  0  0  0  0  0  0
  1  2  1  0
  3  2  1  6
  3  4  1  0
  4  5  1  1
  6  5  1  6
  6  7  1  0
  7  8  1  0
  8  9  1  6
  8 10  1  0
 10 11  1  1
 12 11  1  6
 12 13  1  0
 13 14  1  0
 14 15  1  1
 14 16  1  0
 14 17  1  0
 17 18  1  6
 17 19  1  0
 19 20  1  1
 19 21  1  0
 10 22  1  0
 22 23  1  6
 23 24  1  0
 23 25  1  0
 22 26  1  0
 26 27  1  1
  4 28  1  0
 28 29  1  1
 29 30  1  0
 30 31  2  0
 28 32  1  0
 32 33  1  0
 33 34  1  1
 33 35  1  0
 35 36  1  1
 36 37  1  0
 37 38  1  0
 37 39  2  0
 35 40  1  0
 40 41  2  0
 41 42  1  0
 42 43  2  0
 43 44  1  0
 44 45  1  0
 45 46  1  1
 45 47  1  0
 47 48  1  0
 48 49  2  0
 48 50  1  0
 50 51  1  0
 51 52  1  1
 51  3  1  0
 26  6  1  0
 21 12  1  0
M  END
>  <ChEMBL_IDs>  (88) 
CHEMBL3244596

>  <target_organism>  (88) 
None

>  <target_molecule_pref_name>  (88) 
None

>  <# Known Targets>  (88) 
1.0

>  <Known Targets>  (88) 
CHEMBL612545

>  <smiles>  (88) 
CO[C@@H]1[C@@H](O[C@@H]2O[C@H](C)[C@@H](O[C@H]3C[C@@](C)(O)[C@@H](O)[C@H](C)O3)[C@H](N(C)C)[C@H]2O)[C@@H](CC=O)C[C@@H](C)[C@@H](OC(C)=O)/C=C/C=C/C[C@@H](C)OC(=O)C[C@H]1O

$$$$

     RDKit          2D

 58 60  0  0  0  0  0  0  0  0999 V2000
   18.4042   -4.8111    0.0000 C   0  0  0  0  0  0  0  0  0  0  0  0
   17.0184   -4.2371    0.0000 C   0  0  0  0  0  0  0  0  0  0  0  0
   16.8226   -2.7499    0.0000 C   0  0  0  0  0  0  0  0  0  0  0  0
   15.4367   -2.1759    0.0000 C   0  0  0  0  0  0  0  0  0  0  0  0
   14.2467   -3.0890    0.0000 O   0  0  0  0  0  0  0  0  0  0  0  0
   15.2410   -0.6887    0.0000 O   0  0  0  0  0  0  0  0  0  0  0  0
   13.8551   -0.1147    0.0000 C   0  0  0  0  0  0  0  0  0  0  0  0
   12.6651   -1.0279    0.0000 C   0  0  0  0  0  0  0  0  0  0  0  0
   12.8609   -2.5150    0.0000 C   0  0  0  0  0  0  0  0  0  0  0  0
   11.2793   -0.4538    0.0000 O   0  0  0  0  0  0  0  0  0  0  0  0
   11.0835    1.0333    0.0000 C   0  0  0  0  0  0  0  0  0  0  0  0
    9.6977    1.6074    0.0000 O   0  0  0  0  0  0  0  0  0  0  0  0
    8.5076    0.6942    0.0000 C   0  0  0  0  0  0  0  0  0  0  0  0
    7.1218    1.2682    0.0000 C   0  0  0  0  0  0  0  0  0  0  0  0
    6.9260    2.7554    0.0000 N   0  0  0  0  0  0  0  0  0  0  0  0
    8.1161    3.6686    0.0000 C   0  0  0  0  0  0  0  0  0  0  0  0
    6.2853    3.2296    0.0000 C   0  0  0  0  0  0  0  0  0  0  0  0
    5.9318    0.3551    0.0000 C   0  0  0  0  0  0  0  0  0  0  0  0
    4.5460    0.9291    0.0000 O   0  0  0  0  0  0  0  0  0  0  0  0
    4.3502    2.4163    0.0000 C   0  0  0  0  0  0  0  0  0  0  0  0
    3.1445    3.3086    0.0000 O   0  0  0  0  0  0  0  0  0  0  0  0
    5.5402    3.3294    0.0000 C   0  0  0  0  0  0  0  0  0  0  0  0
    5.3444    4.8166    0.0000 C   0  0  0  0  0  0  0  0  0  0  0  0
    6.1276   -1.1321    0.0000 C   0  0  0  0  0  0  0  0  0  0  0  0
    4.9376   -2.0452    0.0000 O   0  0  0  0  0  0  0  0  0  0  0  0
    3.5517   -1.4712    0.0000 C   0  0  0  0  0  0  0  0  0  0  0  0
    3.8444    0.0000    0.0000 C   0  0  0  0  0  0  0  0  0  0  0  0
    5.3444    0.0000    0.0000 O   0  0  0  0  0  0  0  0  0  0  0  0
    6.3864   -1.0790    0.0000 C   0  0  0  0  0  0  0  0  0  0  0  0
    3.5517    1.4712    0.0000 C   0  0  0  0  0  0  0  0  0  0  0  0
    4.7575    2.3635    0.0000 O   0  0  0  0  0  0  0  0  0  0  0  0
    2.7184    2.7184    0.0000 C   0  0  0  0  0  0  0  0  0  0  0  0
    1.4712    3.5517    0.0000 C   0  0  0  0  0  0  0  0  0  0  0  0
    2.0452    4.9376    0.0000 O   0  0  0  0  0  0  0  0  0  0  0  0
    0.0000    3.8444    0.0000 O   0  0  0  0  0  0  0  0  0  0  0  0
   -1.4712    3.5517    0.0000 C   0  0  0  0  0  0  0  0  0  0  0  0
   -2.0452    4.9376    0.0000 C   0  0  0  0  0  0  0  0  0  0  0  0
   -2.7184    2.7184    0.0000 C   0  0  0  0  0  0  0  0  0  0  0  0
   -3.5517    1.4712    0.0000 C   0  0  0  0  0  0  0  0  0  0  0  0
   -3.8444    0.0000    0.0000 C   0  0  0  0  0  0  0  0  0  0  0  0
   -3.5517   -1.4712    0.0000 C   0  0  0  0  0  0  0  0  0  0  0  0
   -2.7184   -2.7184    0.0000 C   0  0  0  0  0  0  0  0  0  0  0  0
   -1.4712   -3.5517    0.0000 C   0  0  0  0  0  0  0  0  0  0  0  0
   -2.0452   -4.9376    0.0000 O   0  0  0  0  0  0  0  0  0  0  0  0
   -0.0000   -3.8444    0.0000 C   0  0  0  0  0  0  0  0  0  0  0  0
   -0.0000   -5.3444    0.0000 C   0  0  0  0  0  0  0  0  0  0  0  0
    1.4712   -3.5517    0.0000 C   0  0  0  0  0  0  0  0  0  0  0  0
    2.7184   -2.7184    0.0000 C   0  0  0  0  0  0  0  0  0  0  0  0
    3.7790   -3.7790    0.0000 C   0  0  0  0  0  0  0  0  0  0  0  0
    3.3908   -5.2279    0.0000 C   0  0  0  0  0  0  0  0  0  0  0  0
    4.4515   -6.2886    0.0000 O   0  0  0  0  0  0  0  0  0  0  0  0
    7.5134   -1.7061    0.0000 O   0  0  0  0  0  0  0  0  0  0  0  0
    8.7034   -0.7929    0.0000 C   0  0  0  0  0  0  0  0  0  0  0  0
   10.0893   -1.3670    0.0000 C   0  0  0  0  0  0  0  0  0  0  0  0
   12.2735    1.9465    0.0000 C   0  0  0  0  0  0  0  0  0  0  0  0
   13.6593    1.3725    0.0000 C   0  0  0  0  0  0  0  0  0  0  0  0
   13.9840    2.8369    0.0000 C   0  0  0  0  0  0  0  0  0  0  0  0
   15.1579    1.3070    0.0000 O   0  0  0  0  0  0  0  0  0  0  0  0
  1  2  1  0
  2  3  1  0
  3  4  1  0
  4  5  2  0
  4  6  1  0
  7  6  1  1
  7  8  1  0
  8  9  1  6
  8 10  1  0
 10 11  1  0
 11 12  1  1
 13 12  1  6
 13 14  1  0
 14 15  1  1
 15 16  1  0
 15 17  1  0
 14 18  1  0
 18 19  1  6
 19 20  1  0
 20 21  2  0
 20 22  1  0
 22 23  1  0
 18 24  1  0
 24 25  1  1
 26 25  1  1
 26 27  1  0
 27 28  1  6
 28 29  1  0
 27 30  1  0
 30 31  1  1
 30 32  1  0
 32 33  1  0
 33 34  2  0
 33 35  1  0
 35 36  1  0
 36 37  1  1
 36 38  1  0
 38 39  1  0
 39 40  2  0
 40 41  1  0
 41 42  2  0
 42 43  1  0
 43 44  1  1
 43 45  1  0
 45 46  1  1
 45 47  1  0
 47 48  1  0
 48 49  1  1
 49 50  1  0
 50 51  2  0
 24 52  1  0
 52 53  1  0
 53 54  1  1
 11 55  1  0
 55 56  1  0
 56 57  1  6
 56 58  1  0
 56  7  1  0
 53 13  1  0
 48 26  1  0
M  END
>  <ChEMBL_IDs>  (89) 
CHEMBL3251859

>  <target_organism>  (89) 
None

>  <target_molecule_pref_name>  (89) 
None

>  <# Known Targets>  (89) 
1.0

>  <Known Targets>  (89) 
CHEMBL612545

>  <smiles>  (89) 
CCCC(=O)O[C@H]1[C@H](C)O[C@@H](O[C@H]2[C@H](N(C)C)[C@@H](OC(=O)CC)[C@H](O[C@@H]3[C@@H](OC)[C@H](O)CC(=O)O[C@H](C)C/C=C/C=C/[C@H](O)[C@H](C)C[C@@H]3CC=O)O[C@@H]2C)C[C@@]1(C)O

$$$$

     RDKit          2D

 53 55  0  0  0  0  0  0  0  0999 V2000
    5.6205   -1.2990    0.0000 C   0  0  0  0  0  0  0  0  0  0  0  0
    4.8705    0.0000    0.0000 C   0  0  0  0  0  0  0  0  0  0  0  0
    3.3705    0.0000    0.0000 C   0  0  0  0  0  0  0  0  0  0  0  0
    3.0367   -1.4624    0.0000 O   0  0  0  0  0  0  0  0  0  0  0  0
    2.1015   -2.6351    0.0000 C   0  0  0  0  0  0  0  0  0  0  0  0
    3.0367   -3.8079    0.0000 O   0  0  0  0  0  0  0  0  0  0  0  0
    0.7500   -3.2860    0.0000 C   0  0  0  0  0  0  0  0  0  0  0  0
    1.3600   -4.4903    0.0000 C   0  0  0  0  0  0  0  0  0  0  0  0
   -0.7500   -3.2860    0.0000 C   0  0  0  0  0  0  0  0  0  0  0  0
   -1.0838   -4.7484    0.0000 O   0  0  0  0  0  0  0  0  0  0  0  0
    0.0158   -5.7686    0.0000 C   0  0  0  0  0  0  0  0  0  0  0  0
   -0.3180   -7.2310    0.0000 C   0  0  0  0  0  0  0  0  0  0  0  0
    0.7816   -8.2513    0.0000 C   0  0  0  0  0  0  0  0  0  0  0  0
    1.4659   -9.5861    0.0000 C   0  0  0  0  0  0  0  0  0  0  0  0
   -0.4141   -9.1570    0.0000 O   0  0  0  0  0  0  0  0  0  0  0  0
   -0.2276  -10.6453    0.0000 C   0  0  0  0  0  0  0  0  0  0  0  0
    2.2150   -7.8091    0.0000 C   0  0  0  0  0  0  0  0  0  0  0  0
    2.5487   -6.3467    0.0000 C   0  0  0  0  0  0  0  0  0  0  0  0
    3.9821   -5.9046    0.0000 C   0  0  0  0  0  0  0  0  0  0  0  0
    1.4492   -5.3265    0.0000 O   0  0  0  0  0  0  0  0  0  0  0  0
   -2.1015   -2.6351    0.0000 C   0  0  0  0  0  0  0  0  0  0  0  0
   -3.0367   -3.8079    0.0000 C   0  0  0  0  0  0  0  0  0  0  0  0
   -3.0367   -1.4624    0.0000 C   0  0  0  0  0  0  0  0  0  0  0  0
   -4.3881   -2.1132    0.0000 O   0  0  0  0  0  0  0  0  0  0  0  0
   -5.6275   -1.2682    0.0000 C   0  0  0  0  0  0  0  0  0  0  0  0
   -5.5154    0.2276    0.0000 O   0  0  0  0  0  0  0  0  0  0  0  0
   -6.7548    1.0725    0.0000 C   0  0  0  0  0  0  0  0  0  0  0  0
   -6.6427    2.5684    0.0000 C   0  0  0  0  0  0  0  0  0  0  0  0
   -8.1062    0.4217    0.0000 C   0  0  0  0  0  0  0  0  0  0  0  0
   -8.2183   -1.0741    0.0000 C   0  0  0  0  0  0  0  0  0  0  0  0
   -9.5698   -1.7249    0.0000 N   0  0  0  0  0  0  0  0  0  0  0  0
  -10.8091   -0.8799    0.0000 C   0  0  0  0  0  0  0  0  0  0  0  0
   -9.6819   -3.2207    0.0000 C   0  0  0  0  0  0  0  0  0  0  0  0
  -11.0333   -3.8715    0.0000 C   0  0  0  0  0  0  0  0  0  0  0  0
  -11.1454   -5.3673    0.0000 C   0  0  0  0  0  0  0  0  0  0  0  0
  -12.2727   -3.0266    0.0000 O   0  0  0  0  0  0  0  0  0  0  0  0
   -6.9790   -1.9191    0.0000 C   0  0  0  0  0  0  0  0  0  0  0  0
   -7.0910   -3.4149    0.0000 O   0  0  0  0  0  0  0  0  0  0  0  0
   -3.3705    0.0000    0.0000 C   0  0  0  0  0  0  0  0  0  0  0  0
   -4.6098   -0.8450    0.0000 C   0  0  0  0  0  0  0  0  0  0  0  0
   -4.6098    0.8450    0.0000 O   0  0  0  0  0  0  0  0  0  0  0  0
   -3.0367    1.4624    0.0000 C   0  0  0  0  0  0  0  0  0  0  0  0
   -2.1015    2.6351    0.0000 C   0  0  0  0  0  0  0  0  0  0  0  0
   -3.0367    3.8079    0.0000 C   0  0  0  0  0  0  0  0  0  0  0  0
   -0.7500    3.2860    0.0000 C   0  0  0  0  0  0  0  0  0  0  0  0
   -1.0838    4.7484    0.0000 O   0  0  0  0  0  0  0  0  0  0  0  0
    0.7500    3.2860    0.0000 C   0  0  0  0  0  0  0  0  0  0  0  0
    1.0838    4.7484    0.0000 C   0  0  0  0  0  0  0  0  0  0  0  0
    2.1015    2.6351    0.0000 C   0  0  0  0  0  0  0  0  0  0  0  0
    3.0367    3.8079    0.0000 O   0  0  0  0  0  0  0  0  0  0  0  0
    3.0367    1.4624    0.0000 C   0  0  0  0  0  0  0  0  0  0  0  0
    3.7867    2.7614    0.0000 C   0  0  0  0  0  0  0  0  0  0  0  0
    4.5199    1.2388    0.0000 O   0  0  0  0  0  0  0  0  0  0  0  0
  1  2  1  0
  3  2  1  1
  3  4  1  0
  4  5  1  0
  5  6  2  0
  5  7  1  0
  7  8  1  6
  7  9  1  0
  9 10  1  1
 11 10  1  6
 11 12  1  0
 12 13  1  0
 13 14  1  1
 13 15  1  0
 15 16  1  0
 13 17  1  0
 17 18  1  0
 18 19  1  1
 18 20  1  0
  9 21  1  0
 21 22  1  6
 21 23  1  0
 23 24  1  1
 25 24  1  1
 25 26  1  0
 26 27  1  0
 27 28  1  1
 27 29  1  0
 29 30  1  0
 30 31  1  1
 31 32  1  0
 31 33  1  0
 33 34  1  0
 34 35  1  6
 34 36  1  0
 30 37  1  0
 37 38  1  6
 23 39  1  0
 39 40  1  1
 39 41  1  0
 39 42  1  0
 42 43  1  0
 43 44  1  1
 43 45  1  0
 45 46  1  6
 45 47  1  0
 47 48  1  6
 47 49  1  0
 49 50  1  1
 49 51  1  0
 51 52  1  1
 51 53  1  0
 51  3  1  0
 20 11  1  0
 37 25  1  0
M  END
>  <ChEMBL_IDs>  (90) 
CHEMBL1778049

>  <target_organism>  (90) 
Homo sapiens,None,Escherichia coli K-12

>  <target_molecule_pref_name>  (90) 
None

>  <# Known Targets>  (90) 
1.0

>  <Known Targets>  (90) 
CHEMBL5306

>  <smiles>  (90) 
CC[C@H]1OC(=O)[C@H](C)[C@@H](O[C@H]2C[C@@](C)(OC)C[C@H](C)O2)[C@H](C)[C@@H](O[C@@H]2O[C@H](C)C[C@H](N(C)C[C@H](C)O)[C@H]2O)[C@](C)(O)C[C@@H](C)[C@H](O)[C@H](C)[C@@H](O)[C@]1(C)O

$$$$

     RDKit          2D

 54 56  0  0  0  0  0  0  0  0999 V2000
   18.4042   -4.8111    0.0000 C   0  0  0  0  0  0  0  0  0  0  0  0
   17.0184   -4.2371    0.0000 C   0  0  0  0  0  0  0  0  0  0  0  0
   16.8226   -2.7499    0.0000 C   0  0  0  0  0  0  0  0  0  0  0  0
   15.4367   -2.1759    0.0000 C   0  0  0  0  0  0  0  0  0  0  0  0
   14.2467   -3.0890    0.0000 O   0  0  0  0  0  0  0  0  0  0  0  0
   15.2410   -0.6887    0.0000 O   0  0  0  0  0  0  0  0  0  0  0  0
   13.8551   -0.1147    0.0000 C   0  0  0  0  0  0  0  0  0  0  0  0
   12.6651   -1.0279    0.0000 C   0  0  0  0  0  0  0  0  0  0  0  0
   12.8609   -2.5150    0.0000 C   0  0  0  0  0  0  0  0  0  0  0  0
   11.2793   -0.4538    0.0000 O   0  0  0  0  0  0  0  0  0  0  0  0
   11.0835    1.0333    0.0000 C   0  0  0  0  0  0  0  0  0  0  0  0
    9.6977    1.6074    0.0000 O   0  0  0  0  0  0  0  0  0  0  0  0
    8.5076    0.6942    0.0000 C   0  0  0  0  0  0  0  0  0  0  0  0
    7.1218    1.2682    0.0000 C   0  0  0  0  0  0  0  0  0  0  0  0
    6.9260    2.7554    0.0000 C   0  0  0  0  0  0  0  0  0  0  0  0
    5.9318    0.3551    0.0000 O   0  0  0  0  0  0  0  0  0  0  0  0
    6.1276   -1.1321    0.0000 C   0  0  0  0  0  0  0  0  0  0  0  0
    4.9376   -2.0452    0.0000 O   0  0  0  0  0  0  0  0  0  0  0  0
    3.5517   -1.4712    0.0000 C   0  0  0  0  0  0  0  0  0  0  0  0
    2.7184   -2.7184    0.0000 C   0  0  0  0  0  0  0  0  0  0  0  0
    3.7790   -3.7790    0.0000 O   0  0  0  0  0  0  0  0  0  0  0  0
    5.2279   -3.3908    0.0000 C   0  0  0  0  0  0  0  0  0  0  0  0
    1.4712   -3.5517    0.0000 C   0  0  0  0  0  0  0  0  0  0  0  0
    2.0452   -4.9376    0.0000 O   0  0  0  0  0  0  0  0  0  0  0  0
    0.0000   -3.8444    0.0000 C   0  0  0  0  0  0  0  0  0  0  0  0
   -1.4712   -3.5517    0.0000 C   0  0  0  0  0  0  0  0  0  0  0  0
   -2.0452   -4.9376    0.0000 O   0  0  0  0  0  0  0  0  0  0  0  0
   -2.7184   -2.7184    0.0000 O   0  0  0  0  0  0  0  0  0  0  0  0
   -3.5517   -1.4712    0.0000 C   0  0  0  0  0  0  0  0  0  0  0  0
   -4.9376   -2.0452    0.0000 C   0  0  0  0  0  0  0  0  0  0  0  0
   -3.8444   -0.0000    0.0000 C   0  0  0  0  0  0  0  0  0  0  0  0
   -3.5517    1.4712    0.0000 C   0  0  0  0  0  0  0  0  0  0  0  0
   -2.7184    2.7184    0.0000 C   0  0  0  0  0  0  0  0  0  0  0  0
   -1.4712    3.5517    0.0000 C   0  0  0  0  0  0  0  0  0  0  0  0
   -0.0000    3.8444    0.0000 C   0  0  0  0  0  0  0  0  0  0  0  0
    1.4712    3.5517    0.0000 C   0  0  0  0  0  0  0  0  0  0  0  0
    2.0452    4.9376    0.0000 O   0  0  0  0  0  0  0  0  0  0  0  0
    2.7184    2.7184    0.0000 C   0  0  0  0  0  0  0  0  0  0  0  0
    3.7790    3.7790    0.0000 C   0  0  0  0  0  0  0  0  0  0  0  0
    3.5517    1.4712    0.0000 C   0  0  0  0  0  0  0  0  0  0  0  0
    3.8444   -0.0000    0.0000 C   0  0  0  0  0  0  0  0  0  0  0  0
    5.3444   -0.0000    0.0000 C   0  0  0  0  0  0  0  0  0  0  0  0
    6.0944    1.2990    0.0000 C   0  0  0  0  0  0  0  0  0  0  0  0
    7.5498    1.6620    0.0000 O   0  0  0  0  0  0  0  0  0  0  0  0
    7.5134   -1.7061    0.0000 C   0  0  0  0  0  0  0  0  0  0  0  0
    7.7092   -3.1933    0.0000 O   0  0  0  0  0  0  0  0  0  0  0  0
    8.7034   -0.7929    0.0000 C   0  0  0  0  0  0  0  0  0  0  0  0
   10.0893   -1.3670    0.0000 N   0  0  0  0  0  0  0  0  0  0  0  0
   10.2850   -2.8541    0.0000 C   0  0  0  0  0  0  0  0  0  0  0  0
   11.4649   -0.7689    0.0000 C   0  0  0  0  0  0  0  0  0  0  0  0
   12.2735    1.9465    0.0000 C   0  0  0  0  0  0  0  0  0  0  0  0
   13.6593    1.3725    0.0000 C   0  0  0  0  0  0  0  0  0  0  0  0
   13.9840    2.8369    0.0000 C   0  0  0  0  0  0  0  0  0  0  0  0
   15.1579    1.3070    0.0000 O   0  0  0  0  0  0  0  0  0  0  0  0
  1  2  1  0
  2  3  1  0
  3  4  1  0
  4  5  2  0
  4  6  1  0
  7  6  1  1
  7  8  1  0
  8  9  1  6
  8 10  1  0
 10 11  1  0
 11 12  1  1
 13 12  1  1
 13 14  1  0
 14 15  1  6
 14 16  1  0
 16 17  1  0
 17 18  1  6
 19 18  1  6
 19 20  1  0
 20 21  1  1
 21 22  1  0
 20 23  1  0
 23 24  1  6
 23 25  1  0
 25 26  1  0
 26 27  2  0
 26 28  1  0
 28 29  1  0
 29 30  1  6
 29 31  1  0
 31 32  1  0
 32 33  2  0
 33 34  1  0
 34 35  2  0
 35 36  1  0
 36 37  1  6
 36 38  1  0
 38 39  1  6
 38 40  1  0
 40 41  1  0
 41 42  1  6
 42 43  1  0
 43 44  2  0
 17 45  1  0
 45 46  1  1
 45 47  1  0
 47 48  1  6
 48 49  1  0
 48 50  1  0
 11 51  1  0
 51 52  1  0
 52 53  1  6
 52 54  1  0
 52  7  1  0
 47 13  1  0
 41 19  1  0
M  END
>  <ChEMBL_IDs>  (91) 
CHEMBL3251853

>  <target_organism>  (91) 
None

>  <target_molecule_pref_name>  (91) 
None

>  <# Known Targets>  (91) 
1.0

>  <Known Targets>  (91) 
CHEMBL612545

>  <smiles>  (91) 
CCCC(=O)O[C@H]1[C@H](C)O[C@@H](O[C@@H]2[C@@H](C)O[C@@H](O[C@@H]3[C@@H](OC)[C@H](O)CC(=O)O[C@H](C)C/C=C/C=C/[C@H](O)[C@H](C)C[C@@H]3CC=O)[C@H](O)[C@H]2N(C)C)C[C@@]1(C)O

$$$$

     RDKit          2D

 53 55  0  0  0  0  0  0  0  0999 V2000
    7.4426   -1.0200    0.0000 C   0  0  0  0  0  0  0  0  0  0  0  0
    6.1990   -0.1812    0.0000 C   0  0  0  0  0  0  0  0  0  0  0  0
    4.8509   -0.8388    0.0000 O   0  0  0  0  0  0  0  0  0  0  0  0
    3.6073    0.0000    0.0000 C   0  0  0  0  0  0  0  0  0  0  0  0
    4.7393    0.9841    0.0000 C   0  0  0  0  0  0  0  0  0  0  0  0
    3.2954    1.4672    0.0000 C   0  0  0  0  0  0  0  0  0  0  0  0
    2.4138    2.6807    0.0000 C   0  0  0  0  0  0  0  0  0  0  0  0
    3.4175    3.7955    0.0000 C   0  0  0  0  0  0  0  0  0  0  0  0
    1.1147    3.4307    0.0000 C   0  0  0  0  0  0  0  0  0  0  0  0
   -0.3771    3.5875    0.0000 N   0  0  0  0  0  0  0  0  0  0  0  0
   -1.8037    3.1240    0.0000 C   0  0  0  0  0  0  0  0  0  0  0  0
   -2.5537    4.4231    0.0000 C   0  0  0  0  0  0  0  0  0  0  0  0
   -2.9184    2.1203    0.0000 C   0  0  0  0  0  0  0  0  0  0  0  0
   -4.1319    3.0020    0.0000 O   0  0  0  0  0  0  0  0  0  0  0  0
   -3.5285    0.7500    0.0000 C   0  0  0  0  0  0  0  0  0  0  0  0
   -4.9192    0.1881    0.0000 C   0  0  0  0  0  0  0  0  0  0  0  0
   -4.5705    1.8290    0.0000 O   0  0  0  0  0  0  0  0  0  0  0  0
   -3.5285   -0.7500    0.0000 C   0  0  0  0  0  0  0  0  0  0  0  0
   -4.9957   -1.0619    0.0000 C   0  0  0  0  0  0  0  0  0  0  0  0
   -5.9994    0.0528    0.0000 C   0  0  0  0  0  0  0  0  0  0  0  0
   -2.9184   -2.1203    0.0000 O   0  0  0  0  0  0  0  0  0  0  0  0
   -1.8037   -3.1240    0.0000 C   0  0  0  0  0  0  0  0  0  0  0  0
   -2.5537   -4.4231    0.0000 O   0  0  0  0  0  0  0  0  0  0  0  0
   -0.3771   -3.5875    0.0000 C   0  0  0  0  0  0  0  0  0  0  0  0
   -0.8389   -4.8561    0.0000 C   0  0  0  0  0  0  0  0  0  0  0  0
    1.1147   -3.4307    0.0000 C   0  0  0  0  0  0  0  0  0  0  0  0
    1.5782   -4.8573    0.0000 O   0  0  0  0  0  0  0  0  0  0  0  0
    0.5745   -5.9720    0.0000 C   0  0  0  0  0  0  0  0  0  0  0  0
    1.0381   -7.3986    0.0000 C   0  0  0  0  0  0  0  0  0  0  0  0
    0.0344   -8.5134    0.0000 C   0  0  0  0  0  0  0  0  0  0  0  0
   -0.5275   -9.9041    0.0000 C   0  0  0  0  0  0  0  0  0  0  0  0
    1.3064   -9.3082    0.0000 O   0  0  0  0  0  0  0  0  0  0  0  0
    1.2541  -10.8073    0.0000 C   0  0  0  0  0  0  0  0  0  0  0  0
   -1.4328   -8.2015    0.0000 C   0  0  0  0  0  0  0  0  0  0  0  0
   -2.4365   -9.3162    0.0000 O   0  0  0  0  0  0  0  0  0  0  0  0
   -1.8964   -6.7749    0.0000 C   0  0  0  0  0  0  0  0  0  0  0  0
   -3.3636   -6.4630    0.0000 C   0  0  0  0  0  0  0  0  0  0  0  0
   -0.8927   -5.6602    0.0000 O   0  0  0  0  0  0  0  0  0  0  0  0
    2.4138   -2.6807    0.0000 C   0  0  0  0  0  0  0  0  0  0  0  0
    3.4175   -3.7955    0.0000 C   0  0  0  0  0  0  0  0  0  0  0  0
    3.2954   -1.4672    0.0000 C   0  0  0  0  0  0  0  0  0  0  0  0
    4.6658   -2.0773    0.0000 O   0  0  0  0  0  0  0  0  0  0  0  0
    5.8793   -1.1956    0.0000 C   0  0  0  0  0  0  0  0  0  0  0  0
    7.2496   -1.8058    0.0000 O   0  0  0  0  0  0  0  0  0  0  0  0
    8.4631   -0.9241    0.0000 C   0  0  0  0  0  0  0  0  0  0  0  0
    9.8334   -1.5342    0.0000 C   0  0  0  0  0  0  0  0  0  0  0  0
    8.3063    0.5677    0.0000 C   0  0  0  0  0  0  0  0  0  0  0  0
    6.9360    1.1778    0.0000 C   0  0  0  0  0  0  0  0  0  0  0  0
    6.7792    2.6696    0.0000 N   0  0  0  0  0  0  0  0  0  0  0  0
    7.9927    3.5513    0.0000 C   0  0  0  0  0  0  0  0  0  0  0  0
    5.4089    3.2797    0.0000 C   0  0  0  0  0  0  0  0  0  0  0  0
    5.7225    0.2961    0.0000 C   0  0  0  0  0  0  0  0  0  0  0  0
    4.4368    1.0687    0.0000 O   0  0  0  0  0  0  0  0  0  0  0  0
  1  2  2  0
  2  3  1  0
  3  4  1  0
  4  5  1  6
  4  6  1  0
  6  7  1  0
  7  8  1  6
  7  9  1  0
  9 10  1  0
 10 11  1  0
 11 12  1  1
 11 13  1  0
 13 14  1  6
 13 15  1  0
 15 16  1  6
 15 17  1  0
 15 18  1  0
 18 19  1  6
 19 20  1  0
 18 21  1  0
 21 22  1  0
 22 23  2  0
 22 24  1  0
 24 25  1  1
 24 26  1  0
 26 27  1  6
 28 27  1  1
 28 29  1  0
 29 30  1  0
 30 31  1  6
 30 32  1  0
 32 33  1  0
 30 34  1  0
 34 35  1  1
 34 36  1  0
 36 37  1  6
 36 38  1  0
 26 39  1  0
 39 40  1  1
 39 41  1  0
 41 42  1  6
 43 42  1  1
 43 44  1  0
 44 45  1  0
 45 46  1  1
 45 47  1  0
 47 48  1  0
 48 49  1  1
 49 50  1  0
 49 51  1  0
 48 52  1  0
 52 53  1  6
 41  4  1  0
 52 43  1  0
 38 28  1  0
M  END
>  <ChEMBL_IDs>  (92) 
CHEMBL1774300

>  <target_organism>  (92) 
Homo sapiens,None,Escherichia coli K-12

>  <target_molecule_pref_name>  (92) 
None

>  <# Known Targets>  (92) 
1.0

>  <Known Targets>  (92) 
CHEMBL612888

>  <smiles>  (92) 
C=CO[C@]1(C)C[C@@H](C)CN[C@H](C)[C@@H](O)[C@](C)(O)[C@@H](CC)OC(=O)[C@H](C)[C@@H](O[C@H]2C[C@@](C)(OC)[C@@H](O)[C@H](C)O2)[C@H](C)[C@H]1O[C@@H]1O[C@H](C)C[C@H](N(C)C)[C@H]1O

$$$$

     RDKit          2D

 52 54  0  0  0  0  0  0  0  0999 V2000
    5.6205   -1.2990    0.0000 C   0  0  0  0  0  0  0  0  0  0  0  0
    4.8705    0.0000    0.0000 C   0  0  0  0  0  0  0  0  0  0  0  0
    3.3705    0.0000    0.0000 C   0  0  0  0  0  0  0  0  0  0  0  0
    3.0367   -1.4624    0.0000 O   0  0  0  0  0  0  0  0  0  0  0  0
    2.1015   -2.6351    0.0000 C   0  0  0  0  0  0  0  0  0  0  0  0
    3.0367   -3.8079    0.0000 O   0  0  0  0  0  0  0  0  0  0  0  0
    0.7500   -3.2860    0.0000 C   0  0  0  0  0  0  0  0  0  0  0  0
    1.3600   -4.4903    0.0000 C   0  0  0  0  0  0  0  0  0  0  0  0
   -0.7500   -3.2860    0.0000 C   0  0  0  0  0  0  0  0  0  0  0  0
   -1.0838   -4.7484    0.0000 O   0  0  0  0  0  0  0  0  0  0  0  0
    0.0158   -5.7686    0.0000 C   0  0  0  0  0  0  0  0  0  0  0  0
   -0.3180   -7.2310    0.0000 C   0  0  0  0  0  0  0  0  0  0  0  0
    0.7816   -8.2513    0.0000 C   0  0  0  0  0  0  0  0  0  0  0  0
    1.4659   -9.5861    0.0000 C   0  0  0  0  0  0  0  0  0  0  0  0
   -0.4141   -9.1570    0.0000 O   0  0  0  0  0  0  0  0  0  0  0  0
   -0.2276  -10.6453    0.0000 C   0  0  0  0  0  0  0  0  0  0  0  0
    2.2150   -7.8091    0.0000 C   0  0  0  0  0  0  0  0  0  0  0  0
    3.3145   -8.8294    0.0000 O   0  0  0  0  0  0  0  0  0  0  0  0
    2.5487   -6.3467    0.0000 C   0  0  0  0  0  0  0  0  0  0  0  0
    3.9821   -5.9046    0.0000 C   0  0  0  0  0  0  0  0  0  0  0  0
    1.4492   -5.3265    0.0000 O   0  0  0  0  0  0  0  0  0  0  0  0
   -2.1015   -2.6351    0.0000 C   0  0  0  0  0  0  0  0  0  0  0  0
   -3.0367   -3.8079    0.0000 C   0  0  0  0  0  0  0  0  0  0  0  0
   -3.0367   -1.4624    0.0000 C   0  0  0  0  0  0  0  0  0  0  0  0
   -4.3881   -2.1132    0.0000 O   0  0  0  0  0  0  0  0  0  0  0  0
   -5.6275   -1.2682    0.0000 C   0  0  0  0  0  0  0  0  0  0  0  0
   -5.5154    0.2276    0.0000 O   0  0  0  0  0  0  0  0  0  0  0  0
   -6.7548    1.0725    0.0000 C   0  0  0  0  0  0  0  0  0  0  0  0
   -6.6427    2.5684    0.0000 C   0  0  0  0  0  0  0  0  0  0  0  0
   -8.1062    0.4217    0.0000 C   0  0  0  0  0  0  0  0  0  0  0  0
   -8.2183   -1.0741    0.0000 C   0  0  0  0  0  0  0  0  0  0  0  0
   -9.5698   -1.7249    0.0000 N   0  0  0  0  0  0  0  0  0  0  0  0
  -10.8091   -0.8799    0.0000 C   0  0  0  0  0  0  0  0  0  0  0  0
   -9.6819   -3.2207    0.0000 C   0  0  0  0  0  0  0  0  0  0  0  0
  -11.0333   -3.8715    0.0000 C   0  0  0  0  0  0  0  0  0  0  0  0
   -8.4425   -4.0657    0.0000 C   0  0  0  0  0  0  0  0  0  0  0  0
   -6.9790   -1.9191    0.0000 C   0  0  0  0  0  0  0  0  0  0  0  0
   -7.0910   -3.4149    0.0000 O   0  0  0  0  0  0  0  0  0  0  0  0
   -3.3705    0.0000    0.0000 C   0  0  0  0  0  0  0  0  0  0  0  0
   -4.6098   -0.8450    0.0000 C   0  0  0  0  0  0  0  0  0  0  0  0
   -4.6098    0.8450    0.0000 O   0  0  0  0  0  0  0  0  0  0  0  0
   -3.0367    1.4624    0.0000 C   0  0  0  0  0  0  0  0  0  0  0  0
   -2.1015    2.6351    0.0000 C   0  0  0  0  0  0  0  0  0  0  0  0
   -3.0367    3.8079    0.0000 C   0  0  0  0  0  0  0  0  0  0  0  0
   -0.7500    3.2860    0.0000 C   0  0  0  0  0  0  0  0  0  0  0  0
   -1.0838    4.7484    0.0000 O   0  0  0  0  0  0  0  0  0  0  0  0
    0.7500    3.2860    0.0000 C   0  0  0  0  0  0  0  0  0  0  0  0
    1.0838    4.7484    0.0000 C   0  0  0  0  0  0  0  0  0  0  0  0
    2.1015    2.6351    0.0000 C   0  0  0  0  0  0  0  0  0  0  0  0
    3.0367    3.8079    0.0000 O   0  0  0  0  0  0  0  0  0  0  0  0
    3.0367    1.4624    0.0000 C   0  0  0  0  0  0  0  0  0  0  0  0
    4.3881    2.1132    0.0000 C   0  0  0  0  0  0  0  0  0  0  0  0
  1  2  1  0
  3  2  1  1
  3  4  1  0
  4  5  1  0
  5  6  2  0
  5  7  1  0
  7  8  1  6
  7  9  1  0
  9 10  1  1
 11 10  1  1
 11 12  1  0
 12 13  1  0
 13 14  1  1
 13 15  1  0
 15 16  1  0
 13 17  1  0
 17 18  1  6
 17 19  1  0
 19 20  1  1
 19 21  1  0
  9 22  1  0
 22 23  1  6
 22 24  1  0
 24 25  1  1
 26 25  1  1
 26 27  1  0
 27 28  1  0
 28 29  1  1
 28 30  1  0
 30 31  1  0
 31 32  1  1
 32 33  1  0
 32 34  1  0
 34 35  1  0
 34 36  1  0
 31 37  1  0
 37 38  1  6
 24 39  1  0
 39 40  1  1
 39 41  1  0
 39 42  1  0
 42 43  1  0
 43 44  1  1
 43 45  1  0
 45 46  1  6
 45 47  1  0
 47 48  1  6
 47 49  1  0
 49 50  1  1
 49 51  1  0
 51 52  1  1
 51  3  1  0
 21 11  1  0
 37 26  1  0
M  END
>  <ChEMBL_IDs>  (93) 
CHEMBL1256554

>  <target_organism>  (93) 
nan

>  <target_molecule_pref_name>  (93) 
None

>  <# Known Targets>  (93) 
1.0

>  <Known Targets>  (93) 
CHEMBL5306

>  <smiles>  (93) 
CC[C@H]1OC(=O)[C@H](C)[C@@H](O[C@@H]2C[C@@](C)(OC)[C@@H](O)[C@H](C)O2)[C@H](C)[C@@H](O[C@@H]2O[C@H](C)C[C@H](N(C)C(C)C)[C@H]2O)[C@](C)(O)C[C@@H](C)[C@H](O)[C@H](C)[C@@H](O)[C@H]1C

$$$$

     RDKit          2D

 52 54  0  0  0  0  0  0  0  0999 V2000
    5.6205   -1.2990    0.0000 C   0  0  0  0  0  0  0  0  0  0  0  0
    4.8705    0.0000    0.0000 C   0  0  0  0  0  0  0  0  0  0  0  0
    3.3705    0.0000    0.0000 C   0  0  0  0  0  0  0  0  0  0  0  0
    3.0367   -1.4624    0.0000 O   0  0  0  0  0  0  0  0  0  0  0  0
    2.1015   -2.6351    0.0000 C   0  0  0  0  0  0  0  0  0  0  0  0
    3.0367   -3.8079    0.0000 O   0  0  0  0  0  0  0  0  0  0  0  0
    0.7500   -3.2860    0.0000 C   0  0  0  0  0  0  0  0  0  0  0  0
    1.3600   -4.4903    0.0000 C   0  0  0  0  0  0  0  0  0  0  0  0
   -0.7500   -3.2860    0.0000 C   0  0  0  0  0  0  0  0  0  0  0  0
   -1.0838   -4.7484    0.0000 O   0  0  0  0  0  0  0  0  0  0  0  0
    0.0158   -5.7686    0.0000 C   0  0  0  0  0  0  0  0  0  0  0  0
   -0.3180   -7.2310    0.0000 C   0  0  0  0  0  0  0  0  0  0  0  0
    0.7816   -8.2513    0.0000 C   0  0  0  0  0  0  0  0  0  0  0  0
    1.4659   -9.5861    0.0000 C   0  0  0  0  0  0  0  0  0  0  0  0
   -0.4141   -9.1570    0.0000 O   0  0  0  0  0  0  0  0  0  0  0  0
   -0.2276  -10.6453    0.0000 C   0  0  0  0  0  0  0  0  0  0  0  0
    2.2150   -7.8091    0.0000 C   0  0  0  0  0  0  0  0  0  0  0  0
    2.5487   -6.3467    0.0000 C   0  0  0  0  0  0  0  0  0  0  0  0
    3.9821   -5.9046    0.0000 C   0  0  0  0  0  0  0  0  0  0  0  0
    1.4492   -5.3265    0.0000 O   0  0  0  0  0  0  0  0  0  0  0  0
   -2.1015   -2.6351    0.0000 C   0  0  0  0  0  0  0  0  0  0  0  0
   -3.0367   -3.8079    0.0000 C   0  0  0  0  0  0  0  0  0  0  0  0
   -3.0367   -1.4624    0.0000 C   0  0  0  0  0  0  0  0  0  0  0  0
   -4.3881   -2.1132    0.0000 O   0  0  0  0  0  0  0  0  0  0  0  0
   -5.6275   -1.2682    0.0000 C   0  0  0  0  0  0  0  0  0  0  0  0
   -5.5154    0.2276    0.0000 O   0  0  0  0  0  0  0  0  0  0  0  0
   -6.7548    1.0725    0.0000 C   0  0  0  0  0  0  0  0  0  0  0  0
   -6.6427    2.5684    0.0000 C   0  0  0  0  0  0  0  0  0  0  0  0
   -8.1062    0.4217    0.0000 C   0  0  0  0  0  0  0  0  0  0  0  0
   -8.2183   -1.0741    0.0000 C   0  0  0  0  0  0  0  0  0  0  0  0
   -9.5698   -1.7249    0.0000 N   0  0  0  0  0  0  0  0  0  0  0  0
  -10.8091   -0.8799    0.0000 C   0  0  0  0  0  0  0  0  0  0  0  0
   -9.6819   -3.2207    0.0000 C   0  0  0  0  0  0  0  0  0  0  0  0
  -11.0333   -3.8715    0.0000 C   0  0  0  0  0  0  0  0  0  0  0  0
   -8.4425   -4.0657    0.0000 C   0  0  0  0  0  0  0  0  0  0  0  0
   -6.9790   -1.9191    0.0000 C   0  0  0  0  0  0  0  0  0  0  0  0
   -7.0910   -3.4149    0.0000 O   0  0  0  0  0  0  0  0  0  0  0  0
   -3.3705    0.0000    0.0000 C   0  0  0  0  0  0  0  0  0  0  0  0
   -4.6098   -0.8450    0.0000 C   0  0  0  0  0  0  0  0  0  0  0  0
   -4.6098    0.8450    0.0000 O   0  0  0  0  0  0  0  0  0  0  0  0
   -3.0367    1.4624    0.0000 C   0  0  0  0  0  0  0  0  0  0  0  0
   -2.1015    2.6351    0.0000 C   0  0  0  0  0  0  0  0  0  0  0  0
   -3.0367    3.8079    0.0000 C   0  0  0  0  0  0  0  0  0  0  0  0
   -0.7500    3.2860    0.0000 C   0  0  0  0  0  0  0  0  0  0  0  0
   -1.0838    4.7484    0.0000 O   0  0  0  0  0  0  0  0  0  0  0  0
    0.7500    3.2860    0.0000 C   0  0  0  0  0  0  0  0  0  0  0  0
    1.0838    4.7484    0.0000 C   0  0  0  0  0  0  0  0  0  0  0  0
    2.1015    2.6351    0.0000 C   0  0  0  0  0  0  0  0  0  0  0  0
    3.0367    3.8079    0.0000 O   0  0  0  0  0  0  0  0  0  0  0  0
    3.0367    1.4624    0.0000 C   0  0  0  0  0  0  0  0  0  0  0  0
    3.7867    2.7614    0.0000 C   0  0  0  0  0  0  0  0  0  0  0  0
    4.5199    1.2388    0.0000 O   0  0  0  0  0  0  0  0  0  0  0  0
  1  2  1  0
  3  2  1  1
  3  4  1  0
  4  5  1  0
  5  6  2  0
  5  7  1  0
  7  8  1  6
  7  9  1  0
  9 10  1  1
 11 10  1  6
 11 12  1  0
 12 13  1  0
 13 14  1  1
 13 15  1  0
 15 16  1  0
 13 17  1  0
 17 18  1  0
 18 19  1  1
 18 20  1  0
  9 21  1  0
 21 22  1  6
 21 23  1  0
 23 24  1  1
 25 24  1  1
 25 26  1  0
 26 27  1  0
 27 28  1  1
 27 29  1  0
 29 30  1  0
 30 31  1  1
 31 32  1  0
 31 33  1  0
 33 34  1  0
 33 35  1  0
 30 36  1  0
 36 37  1  6
 23 38  1  0
 38 39  1  1
 38 40  1  0
 38 41  1  0
 41 42  1  0
 42 43  1  1
 42 44  1  0
 44 45  1  6
 44 46  1  0
 46 47  1  6
 46 48  1  0
 48 49  1  1
 48 50  1  0
 50 51  1  1
 50 52  1  0
 50  3  1  0
 20 11  1  0
 36 25  1  0
M  END
>  <ChEMBL_IDs>  (94) 
CHEMBL1778045

>  <target_organism>  (94) 
Homo sapiens,None,Escherichia coli K-12

>  <target_molecule_pref_name>  (94) 
None

>  <# Known Targets>  (94) 
1.0

>  <Known Targets>  (94) 
CHEMBL5306

>  <smiles>  (94) 
CC[C@H]1OC(=O)[C@H](C)[C@@H](O[C@H]2C[C@@](C)(OC)C[C@H](C)O2)[C@H](C)[C@@H](O[C@@H]2O[C@H](C)C[C@H](N(C)C(C)C)[C@H]2O)[C@](C)(O)C[C@@H](C)[C@H](O)[C@H](C)[C@@H](O)[C@]1(C)O

$$$$

     RDKit          2D

 53 55  0  0  0  0  0  0  0  0999 V2000
    5.6205   -1.2990    0.0000 C   0  0  0  0  0  0  0  0  0  0  0  0
    4.8705    0.0000    0.0000 C   0  0  0  0  0  0  0  0  0  0  0  0
    3.3705    0.0000    0.0000 C   0  0  0  0  0  0  0  0  0  0  0  0
    3.0367   -1.4624    0.0000 O   0  0  0  0  0  0  0  0  0  0  0  0
    2.1015   -2.6351    0.0000 C   0  0  0  0  0  0  0  0  0  0  0  0
    3.0367   -3.8079    0.0000 O   0  0  0  0  0  0  0  0  0  0  0  0
    0.7500   -3.2860    0.0000 C   0  0  0  0  0  0  0  0  0  0  0  0
    1.3600   -4.4903    0.0000 C   0  0  0  0  0  0  0  0  0  0  0  0
   -0.7500   -3.2860    0.0000 C   0  0  0  0  0  0  0  0  0  0  0  0
   -1.0838   -4.7484    0.0000 O   0  0  0  0  0  0  0  0  0  0  0  0
    0.0158   -5.7686    0.0000 C   0  0  0  0  0  0  0  0  0  0  0  0
   -0.3180   -7.2310    0.0000 C   0  0  0  0  0  0  0  0  0  0  0  0
    0.7816   -8.2513    0.0000 C   0  0  0  0  0  0  0  0  0  0  0  0
    1.4659   -9.5861    0.0000 C   0  0  0  0  0  0  0  0  0  0  0  0
   -0.4141   -9.1570    0.0000 O   0  0  0  0  0  0  0  0  0  0  0  0
   -0.2276  -10.6453    0.0000 C   0  0  0  0  0  0  0  0  0  0  0  0
    2.2150   -7.8091    0.0000 C   0  0  0  0  0  0  0  0  0  0  0  0
    3.3145   -8.8294    0.0000 O   0  0  0  0  0  0  0  0  0  0  0  0
    2.5487   -6.3467    0.0000 C   0  0  0  0  0  0  0  0  0  0  0  0
    3.9821   -5.9046    0.0000 C   0  0  0  0  0  0  0  0  0  0  0  0
    1.4492   -5.3265    0.0000 O   0  0  0  0  0  0  0  0  0  0  0  0
   -2.1015   -2.6351    0.0000 C   0  0  0  0  0  0  0  0  0  0  0  0
   -3.0367   -3.8079    0.0000 C   0  0  0  0  0  0  0  0  0  0  0  0
   -3.0367   -1.4624    0.0000 C   0  0  0  0  0  0  0  0  0  0  0  0
   -4.3881   -2.1132    0.0000 O   0  0  0  0  0  0  0  0  0  0  0  0
   -5.6275   -1.2682    0.0000 C   0  0  0  0  0  0  0  0  0  0  0  0
   -5.5154    0.2276    0.0000 O   0  0  0  0  0  0  0  0  0  0  0  0
   -6.7548    1.0725    0.0000 C   0  0  0  0  0  0  0  0  0  0  0  0
   -6.6427    2.5684    0.0000 C   0  0  0  0  0  0  0  0  0  0  0  0
   -8.1062    0.4217    0.0000 C   0  0  0  0  0  0  0  0  0  0  0  0
   -8.2183   -1.0741    0.0000 C   0  0  0  0  0  0  0  0  0  0  0  0
   -9.5698   -1.7249    0.0000 N   0  0  0  0  0  0  0  0  0  0  0  0
  -10.8091   -0.8799    0.0000 C   0  0  0  0  0  0  0  0  0  0  0  0
   -9.6819   -3.2207    0.0000 C   0  0  0  0  0  0  0  0  0  0  0  0
  -11.0333   -3.8715    0.0000 C   0  0  0  0  0  0  0  0  0  0  0  0
  -11.1454   -5.3673    0.0000 C   0  0  0  0  0  0  0  0  0  0  0  0
  -12.2727   -3.0266    0.0000 O   0  0  0  0  0  0  0  0  0  0  0  0
   -6.9790   -1.9191    0.0000 C   0  0  0  0  0  0  0  0  0  0  0  0
   -7.0910   -3.4149    0.0000 O   0  0  0  0  0  0  0  0  0  0  0  0
   -3.3705    0.0000    0.0000 C   0  0  0  0  0  0  0  0  0  0  0  0
   -4.6098   -0.8450    0.0000 C   0  0  0  0  0  0  0  0  0  0  0  0
   -4.6098    0.8450    0.0000 O   0  0  0  0  0  0  0  0  0  0  0  0
   -3.0367    1.4624    0.0000 C   0  0  0  0  0  0  0  0  0  0  0  0
   -2.1015    2.6351    0.0000 C   0  0  0  0  0  0  0  0  0  0  0  0
   -3.0367    3.8079    0.0000 C   0  0  0  0  0  0  0  0  0  0  0  0
   -0.7500    3.2860    0.0000 C   0  0  0  0  0  0  0  0  0  0  0  0
   -1.0838    4.7484    0.0000 O   0  0  0  0  0  0  0  0  0  0  0  0
    0.7500    3.2860    0.0000 C   0  0  0  0  0  0  0  0  0  0  0  0
    1.0838    4.7484    0.0000 C   0  0  0  0  0  0  0  0  0  0  0  0
    2.1015    2.6351    0.0000 C   0  0  0  0  0  0  0  0  0  0  0  0
    3.0367    3.8079    0.0000 O   0  0  0  0  0  0  0  0  0  0  0  0
    3.0367    1.4624    0.0000 C   0  0  0  0  0  0  0  0  0  0  0  0
    4.3881    2.1132    0.0000 C   0  0  0  0  0  0  0  0  0  0  0  0
  1  2  1  0
  3  2  1  1
  3  4  1  0
  4  5  1  0
  5  6  2  0
  5  7  1  0
  7  8  1  6
  7  9  1  0
  9 10  1  1
 11 10  1  1
 11 12  1  0
 12 13  1  0
 13 14  1  1
 13 15  1  0
 15 16  1  0
 13 17  1  0
 17 18  1  6
 17 19  1  0
 19 20  1  1
 19 21  1  0
  9 22  1  0
 22 23  1  6
 22 24  1  0
 24 25  1  1
 26 25  1  1
 26 27  1  0
 27 28  1  0
 28 29  1  1
 28 30  1  0
 30 31  1  0
 31 32  1  1
 32 33  1  0
 32 34  1  0
 34 35  1  0
 35 36  1  6
 35 37  1  0
 31 38  1  0
 38 39  1  6
 24 40  1  0
 40 41  1  1
 40 42  1  0
 40 43  1  0
 43 44  1  0
 44 45  1  1
 44 46  1  0
 46 47  1  6
 46 48  1  0
 48 49  1  6
 48 50  1  0
 50 51  1  1
 50 52  1  0
 52 53  1  1
 52  3  1  0
 21 11  1  0
 38 26  1  0
M  END
>  <ChEMBL_IDs>  (95) 
CHEMBL1256556

>  <target_organism>  (95) 
nan

>  <target_molecule_pref_name>  (95) 
None

>  <# Known Targets>  (95) 
1.0

>  <Known Targets>  (95) 
CHEMBL5306

>  <smiles>  (95) 
CC[C@H]1OC(=O)[C@H](C)[C@@H](O[C@@H]2C[C@@](C)(OC)[C@@H](O)[C@H](C)O2)[C@H](C)[C@@H](O[C@@H]2O[C@H](C)C[C@H](N(C)C[C@H](C)O)[C@H]2O)[C@](C)(O)C[C@@H](C)[C@H](O)[C@H](C)[C@@H](O)[C@H]1C

$$$$

     RDKit          2D

 53 55  0  0  0  0  0  0  0  0999 V2000
    5.6205   -1.2990    0.0000 C   0  0  0  0  0  0  0  0  0  0  0  0
    4.8705    0.0000    0.0000 C   0  0  0  0  0  0  0  0  0  0  0  0
    3.3705    0.0000    0.0000 C   0  0  0  0  0  0  0  0  0  0  0  0
    3.0367   -1.4624    0.0000 O   0  0  0  0  0  0  0  0  0  0  0  0
    2.1015   -2.6351    0.0000 C   0  0  0  0  0  0  0  0  0  0  0  0
    3.0367   -3.8079    0.0000 O   0  0  0  0  0  0  0  0  0  0  0  0
    0.7500   -3.2860    0.0000 C   0  0  0  0  0  0  0  0  0  0  0  0
    1.3600   -4.4903    0.0000 C   0  0  0  0  0  0  0  0  0  0  0  0
   -0.7500   -3.2860    0.0000 C   0  0  0  0  0  0  0  0  0  0  0  0
   -1.0838   -4.7484    0.0000 O   0  0  0  0  0  0  0  0  0  0  0  0
    0.0158   -5.7686    0.0000 C   0  0  0  0  0  0  0  0  0  0  0  0
   -0.3180   -7.2310    0.0000 C   0  0  0  0  0  0  0  0  0  0  0  0
    0.7816   -8.2513    0.0000 C   0  0  0  0  0  0  0  0  0  0  0  0
    1.4659   -9.5861    0.0000 C   0  0  0  0  0  0  0  0  0  0  0  0
   -0.4141   -9.1570    0.0000 O   0  0  0  0  0  0  0  0  0  0  0  0
   -0.2276  -10.6453    0.0000 C   0  0  0  0  0  0  0  0  0  0  0  0
    2.2150   -7.8091    0.0000 C   0  0  0  0  0  0  0  0  0  0  0  0
    3.3145   -8.8294    0.0000 O   0  0  0  0  0  0  0  0  0  0  0  0
    2.5487   -6.3467    0.0000 C   0  0  0  0  0  0  0  0  0  0  0  0
    3.9821   -5.9046    0.0000 C   0  0  0  0  0  0  0  0  0  0  0  0
    1.4492   -5.3265    0.0000 O   0  0  0  0  0  0  0  0  0  0  0  0
   -2.1015   -2.6351    0.0000 C   0  0  0  0  0  0  0  0  0  0  0  0
   -3.0367   -3.8079    0.0000 C   0  0  0  0  0  0  0  0  0  0  0  0
   -3.0367   -1.4624    0.0000 C   0  0  0  0  0  0  0  0  0  0  0  0
   -4.3881   -2.1132    0.0000 O   0  0  0  0  0  0  0  0  0  0  0  0
   -5.6275   -1.2682    0.0000 C   0  0  0  0  0  0  0  0  0  0  0  0
   -5.5154    0.2276    0.0000 O   0  0  0  0  0  0  0  0  0  0  0  0
   -6.7548    1.0725    0.0000 C   0  0  0  0  0  0  0  0  0  0  0  0
   -6.6427    2.5684    0.0000 C   0  0  0  0  0  0  0  0  0  0  0  0
   -8.1062    0.4217    0.0000 C   0  0  0  0  0  0  0  0  0  0  0  0
   -8.2183   -1.0741    0.0000 C   0  0  0  0  0  0  0  0  0  0  0  0
   -9.5698   -1.7249    0.0000 N   0  0  0  0  0  0  0  0  0  0  0  0
  -10.8091   -0.8799    0.0000 C   0  0  0  0  0  0  0  0  0  0  0  0
   -9.6819   -3.2207    0.0000 C   0  0  0  0  0  0  0  0  0  0  0  0
  -11.0333   -3.8715    0.0000 C   0  0  0  0  0  0  0  0  0  0  0  0
  -11.1454   -5.3673    0.0000 C   0  0  0  0  0  0  0  0  0  0  0  0
  -12.2727   -3.0266    0.0000 O   0  0  0  0  0  0  0  0  0  0  0  0
   -6.9790   -1.9191    0.0000 C   0  0  0  0  0  0  0  0  0  0  0  0
   -7.0910   -3.4149    0.0000 O   0  0  0  0  0  0  0  0  0  0  0  0
   -3.3705    0.0000    0.0000 C   0  0  0  0  0  0  0  0  0  0  0  0
   -4.6098   -0.8450    0.0000 C   0  0  0  0  0  0  0  0  0  0  0  0
   -4.6098    0.8450    0.0000 O   0  0  0  0  0  0  0  0  0  0  0  0
   -3.0367    1.4624    0.0000 C   0  0  0  0  0  0  0  0  0  0  0  0
   -2.1015    2.6351    0.0000 C   0  0  0  0  0  0  0  0  0  0  0  0
   -3.0367    3.8079    0.0000 C   0  0  0  0  0  0  0  0  0  0  0  0
   -0.7500    3.2860    0.0000 C   0  0  0  0  0  0  0  0  0  0  0  0
   -1.0838    4.7484    0.0000 O   0  0  0  0  0  0  0  0  0  0  0  0
    0.7500    3.2860    0.0000 C   0  0  0  0  0  0  0  0  0  0  0  0
    1.0838    4.7484    0.0000 C   0  0  0  0  0  0  0  0  0  0  0  0
    2.1015    2.6351    0.0000 C   0  0  0  0  0  0  0  0  0  0  0  0
    3.0367    3.8079    0.0000 O   0  0  0  0  0  0  0  0  0  0  0  0
    3.0367    1.4624    0.0000 C   0  0  0  0  0  0  0  0  0  0  0  0
    4.3881    2.1132    0.0000 C   0  0  0  0  0  0  0  0  0  0  0  0
  1  2  1  0
  3  2  1  1
  3  4  1  0
  4  5  1  0
  5  6  2  0
  5  7  1  0
  7  8  1  6
  7  9  1  0
  9 10  1  1
 11 10  1  1
 11 12  1  0
 12 13  1  0
 13 14  1  1
 13 15  1  0
 15 16  1  0
 13 17  1  0
 17 18  1  6
 17 19  1  0
 19 20  1  1
 19 21  1  0
  9 22  1  0
 22 23  1  6
 22 24  1  0
 24 25  1  1
 26 25  1  1
 26 27  1  0
 27 28  1  0
 28 29  1  1
 28 30  1  0
 30 31  1  0
 31 32  1  1
 32 33  1  0
 32 34  1  0
 34 35  1  0
 35 36  1  1
 35 37  1  0
 31 38  1  0
 38 39  1  6
 24 40  1  0
 40 41  1  1
 40 42  1  0
 40 43  1  0
 43 44  1  0
 44 45  1  1
 44 46  1  0
 46 47  1  6
 46 48  1  0
 48 49  1  6
 48 50  1  0
 50 51  1  1
 50 52  1  0
 52 53  1  1
 52  3  1  0
 21 11  1  0
 38 26  1  0
M  END
>  <ChEMBL_IDs>  (96) 
CHEMBL1256557

>  <target_organism>  (96) 
nan

>  <target_molecule_pref_name>  (96) 
None

>  <# Known Targets>  (96) 
1.0

>  <Known Targets>  (96) 
CHEMBL5306

>  <smiles>  (96) 
CC[C@H]1OC(=O)[C@H](C)[C@@H](O[C@@H]2C[C@@](C)(OC)[C@@H](O)[C@H](C)O2)[C@H](C)[C@@H](O[C@@H]2O[C@H](C)C[C@H](N(C)C[C@@H](C)O)[C@H]2O)[C@](C)(O)C[C@@H](C)[C@H](O)[C@H](C)[C@@H](O)[C@H]1C

$$$$

     RDKit          2D

 53 55  0  0  0  0  0  0  0  0999 V2000
    5.6205   -1.2990    0.0000 C   0  0  0  0  0  0  0  0  0  0  0  0
    4.8705    0.0000    0.0000 C   0  0  0  0  0  0  0  0  0  0  0  0
    3.3705    0.0000    0.0000 C   0  0  0  0  0  0  0  0  0  0  0  0
    3.0367   -1.4624    0.0000 O   0  0  0  0  0  0  0  0  0  0  0  0
    2.1015   -2.6351    0.0000 C   0  0  0  0  0  0  0  0  0  0  0  0
    3.0367   -3.8079    0.0000 O   0  0  0  0  0  0  0  0  0  0  0  0
    0.7500   -3.2860    0.0000 C   0  0  0  0  0  0  0  0  0  0  0  0
    1.3600   -4.4903    0.0000 C   0  0  0  0  0  0  0  0  0  0  0  0
   -0.7500   -3.2860    0.0000 C   0  0  0  0  0  0  0  0  0  0  0  0
   -1.0838   -4.7484    0.0000 O   0  0  0  0  0  0  0  0  0  0  0  0
    0.0158   -5.7686    0.0000 C   0  0  0  0  0  0  0  0  0  0  0  0
   -0.3180   -7.2310    0.0000 C   0  0  0  0  0  0  0  0  0  0  0  0
    0.7816   -8.2513    0.0000 C   0  0  0  0  0  0  0  0  0  0  0  0
    1.4659   -9.5861    0.0000 C   0  0  0  0  0  0  0  0  0  0  0  0
   -0.4141   -9.1570    0.0000 O   0  0  0  0  0  0  0  0  0  0  0  0
   -0.2276  -10.6453    0.0000 C   0  0  0  0  0  0  0  0  0  0  0  0
    2.2150   -7.8091    0.0000 C   0  0  0  0  0  0  0  0  0  0  0  0
    3.3145   -8.8294    0.0000 O   0  0  0  0  0  0  0  0  0  0  0  0
    2.5487   -6.3467    0.0000 C   0  0  0  0  0  0  0  0  0  0  0  0
    3.9821   -5.9046    0.0000 C   0  0  0  0  0  0  0  0  0  0  0  0
    1.4492   -5.3265    0.0000 O   0  0  0  0  0  0  0  0  0  0  0  0
   -2.1015   -2.6351    0.0000 C   0  0  0  0  0  0  0  0  0  0  0  0
   -3.0367   -3.8079    0.0000 C   0  0  0  0  0  0  0  0  0  0  0  0
   -3.0367   -1.4624    0.0000 C   0  0  0  0  0  0  0  0  0  0  0  0
   -4.3881   -2.1132    0.0000 O   0  0  0  0  0  0  0  0  0  0  0  0
   -5.6275   -1.2682    0.0000 C   0  0  0  0  0  0  0  0  0  0  0  0
   -5.5154    0.2276    0.0000 O   0  0  0  0  0  0  0  0  0  0  0  0
   -6.7548    1.0725    0.0000 C   0  0  0  0  0  0  0  0  0  0  0  0
   -6.6427    2.5684    0.0000 C   0  0  0  0  0  0  0  0  0  0  0  0
   -8.1062    0.4217    0.0000 C   0  0  0  0  0  0  0  0  0  0  0  0
   -8.2183   -1.0741    0.0000 C   0  0  0  0  0  0  0  0  0  0  0  0
   -9.5698   -1.7249    0.0000 N   0  0  0  0  0  0  0  0  0  0  0  0
  -10.8091   -0.8799    0.0000 C   0  0  0  0  0  0  0  0  0  0  0  0
   -9.6819   -3.2207    0.0000 C   0  0  0  0  0  0  0  0  0  0  0  0
  -11.0333   -3.8715    0.0000 C   0  0  0  0  0  0  0  0  0  0  0  0
   -8.4425   -4.0657    0.0000 C   0  0  0  0  0  0  0  0  0  0  0  0
   -6.9790   -1.9191    0.0000 C   0  0  0  0  0  0  0  0  0  0  0  0
   -7.0910   -3.4149    0.0000 O   0  0  0  0  0  0  0  0  0  0  0  0
   -3.3705    0.0000    0.0000 C   0  0  0  0  0  0  0  0  0  0  0  0
   -4.6098   -0.8450    0.0000 C   0  0  0  0  0  0  0  0  0  0  0  0
   -4.6098    0.8450    0.0000 O   0  0  0  0  0  0  0  0  0  0  0  0
   -3.0367    1.4624    0.0000 C   0  0  0  0  0  0  0  0  0  0  0  0
   -2.1015    2.6351    0.0000 C   0  0  0  0  0  0  0  0  0  0  0  0
   -3.0367    3.8079    0.0000 C   0  0  0  0  0  0  0  0  0  0  0  0
   -0.7500    3.2860    0.0000 C   0  0  0  0  0  0  0  0  0  0  0  0
   -1.0838    4.7484    0.0000 O   0  0  0  0  0  0  0  0  0  0  0  0
    0.7500    3.2860    0.0000 C   0  0  0  0  0  0  0  0  0  0  0  0
    1.0838    4.7484    0.0000 C   0  0  0  0  0  0  0  0  0  0  0  0
    2.1015    2.6351    0.0000 C   0  0  0  0  0  0  0  0  0  0  0  0
    3.0367    3.8079    0.0000 O   0  0  0  0  0  0  0  0  0  0  0  0
    3.0367    1.4624    0.0000 C   0  0  0  0  0  0  0  0  0  0  0  0
    3.7867    2.7614    0.0000 C   0  0  0  0  0  0  0  0  0  0  0  0
    4.5199    1.2388    0.0000 O   0  0  0  0  0  0  0  0  0  0  0  0
  1  2  1  0
  3  2  1  1
  3  4  1  0
  4  5  1  0
  5  6  2  0
  5  7  1  0
  7  8  1  6
  7  9  1  0
  9 10  1  1
 11 10  1  1
 11 12  1  0
 12 13  1  0
 13 14  1  1
 13 15  1  0
 15 16  1  0
 13 17  1  0
 17 18  1  6
 17 19  1  0
 19 20  1  1
 19 21  1  0
  9 22  1  0
 22 23  1  6
 22 24  1  0
 24 25  1  1
 26 25  1  1
 26 27  1  0
 27 28  1  0
 28 29  1  1
 28 30  1  0
 30 31  1  0
 31 32  1  1
 32 33  1  0
 32 34  1  0
 34 35  1  0
 34 36  1  0
 31 37  1  0
 37 38  1  6
 24 39  1  0
 39 40  1  1
 39 41  1  0
 39 42  1  0
 42 43  1  0
 43 44  1  1
 43 45  1  0
 45 46  1  6
 45 47  1  0
 47 48  1  6
 47 49  1  0
 49 50  1  1
 49 51  1  0
 51 52  1  1
 51 53  1  0
 51  3  1  0
 21 11  1  0
 37 26  1  0
M  END
>  <ChEMBL_IDs>  (97) 
CHEMBL1256534

>  <target_organism>  (97) 
nan

>  <target_molecule_pref_name>  (97) 
None

>  <# Known Targets>  (97) 
1.0

>  <Known Targets>  (97) 
CHEMBL5306

>  <smiles>  (97) 
CC[C@H]1OC(=O)[C@H](C)[C@@H](O[C@@H]2C[C@@](C)(OC)[C@@H](O)[C@H](C)O2)[C@H](C)[C@@H](O[C@@H]2O[C@H](C)C[C@H](N(C)C(C)C)[C@H]2O)[C@](C)(O)C[C@@H](C)[C@H](O)[C@H](C)[C@@H](O)[C@]1(C)O

$$$$

     RDKit          2D

 58 60  0  0  0  0  0  0  0  0999 V2000
   16.4157   -9.6117    0.0000 C   0  0  0  0  0  0  0  0  0  0  0  0
   15.0299   -9.0377    0.0000 C   0  0  0  0  0  0  0  0  0  0  0  0
   13.8398   -9.9509    0.0000 C   0  0  0  0  0  0  0  0  0  0  0  0
   12.4540   -9.3768    0.0000 C   0  0  0  0  0  0  0  0  0  0  0  0
   12.2582   -7.8897    0.0000 O   0  0  0  0  0  0  0  0  0  0  0  0
   11.2640  -10.2900    0.0000 O   0  0  0  0  0  0  0  0  0  0  0  0
    9.8782   -9.7159    0.0000 C   0  0  0  0  0  0  0  0  0  0  0  0
    9.6824   -8.2288    0.0000 C   0  0  0  0  0  0  0  0  0  0  0  0
   10.8724   -7.3156    0.0000 C   0  0  0  0  0  0  0  0  0  0  0  0
    8.2966   -7.6548    0.0000 O   0  0  0  0  0  0  0  0  0  0  0  0
    7.1065   -8.5679    0.0000 C   0  0  0  0  0  0  0  0  0  0  0  0
    5.7207   -7.9939    0.0000 O   0  0  0  0  0  0  0  0  0  0  0  0
    5.5249   -6.5067    0.0000 C   0  0  0  0  0  0  0  0  0  0  0  0
    4.1391   -5.9327    0.0000 C   0  0  0  0  0  0  0  0  0  0  0  0
    2.9491   -6.8458    0.0000 C   0  0  0  0  0  0  0  0  0  0  0  0
    3.9433   -4.4455    0.0000 O   0  0  0  0  0  0  0  0  0  0  0  0
    5.1333   -3.5324    0.0000 C   0  0  0  0  0  0  0  0  0  0  0  0
    4.9376   -2.0452    0.0000 O   0  0  0  0  0  0  0  0  0  0  0  0
    3.5517   -1.4712    0.0000 C   0  0  0  0  0  0  0  0  0  0  0  0
    3.8444    0.0000    0.0000 C   0  0  0  0  0  0  0  0  0  0  0  0
    5.3444    0.0000    0.0000 O   0  0  0  0  0  0  0  0  0  0  0  0
    6.0944   -1.2990    0.0000 C   0  0  0  0  0  0  0  0  0  0  0  0
    3.5517    1.4712    0.0000 C   0  0  0  0  0  0  0  0  0  0  0  0
    4.9376    2.0452    0.0000 O   0  0  0  0  0  0  0  0  0  0  0  0
    2.7184    2.7184    0.0000 C   0  0  0  0  0  0  0  0  0  0  0  0
    1.4712    3.5517    0.0000 C   0  0  0  0  0  0  0  0  0  0  0  0
    2.0452    4.9376    0.0000 O   0  0  0  0  0  0  0  0  0  0  0  0
    0.0000    3.8444    0.0000 O   0  0  0  0  0  0  0  0  0  0  0  0
   -1.4712    3.5517    0.0000 C   0  0  0  0  0  0  0  0  0  0  0  0
   -2.0452    4.9376    0.0000 C   0  0  0  0  0  0  0  0  0  0  0  0
   -2.7184    2.7184    0.0000 C   0  0  0  0  0  0  0  0  0  0  0  0
   -3.5517    1.4712    0.0000 C   0  0  0  0  0  0  0  0  0  0  0  0
   -3.8444    0.0000    0.0000 C   0  0  0  0  0  0  0  0  0  0  0  0
   -3.5517   -1.4712    0.0000 C   0  0  0  0  0  0  0  0  0  0  0  0
   -2.7184   -2.7184    0.0000 C   0  0  0  0  0  0  0  0  0  0  0  0
   -1.4712   -3.5517    0.0000 C   0  0  0  0  0  0  0  0  0  0  0  0
   -2.0452   -4.9376    0.0000 O   0  0  0  0  0  0  0  0  0  0  0  0
   -3.5324   -5.1333    0.0000 C   0  0  0  0  0  0  0  0  0  0  0  0
   -4.4455   -3.9433    0.0000 O   0  0  0  0  0  0  0  0  0  0  0  0
   -4.1064   -6.5192    0.0000 C   0  0  0  0  0  0  0  0  0  0  0  0
   -5.5936   -6.7150    0.0000 C   0  0  0  0  0  0  0  0  0  0  0  0
   -0.0000   -3.8444    0.0000 C   0  0  0  0  0  0  0  0  0  0  0  0
   -0.0000   -5.3444    0.0000 C   0  0  0  0  0  0  0  0  0  0  0  0
    1.4712   -3.5517    0.0000 C   0  0  0  0  0  0  0  0  0  0  0  0
    2.7184   -2.7184    0.0000 C   0  0  0  0  0  0  0  0  0  0  0  0
    3.7790   -3.7790    0.0000 C   0  0  0  0  0  0  0  0  0  0  0  0
    3.3908   -5.2279    0.0000 C   0  0  0  0  0  0  0  0  0  0  0  0
    4.1633   -6.5137    0.0000 O   0  0  0  0  0  0  0  0  0  0  0  0
    6.5192   -4.1064    0.0000 C   0  0  0  0  0  0  0  0  0  0  0  0
    7.7092   -3.1933    0.0000 O   0  0  0  0  0  0  0  0  0  0  0  0
    6.7150   -5.5936    0.0000 C   0  0  0  0  0  0  0  0  0  0  0  0
    8.1008   -6.1676    0.0000 N   0  0  0  0  0  0  0  0  0  0  0  0
    9.2908   -5.2544    0.0000 C   0  0  0  0  0  0  0  0  0  0  0  0
    8.6506   -7.5632    0.0000 C   0  0  0  0  0  0  0  0  0  0  0  0
    7.3023  -10.0551    0.0000 C   0  0  0  0  0  0  0  0  0  0  0  0
    8.6881  -10.6291    0.0000 C   0  0  0  0  0  0  0  0  0  0  0  0
    7.8822  -11.8942    0.0000 C   0  0  0  0  0  0  0  0  0  0  0  0
    9.7941  -11.6425    0.0000 O   0  0  0  0  0  0  0  0  0  0  0  0
  1  2  1  0
  2  3  1  0
  3  4  1  0
  4  5  2  0
  4  6  1  0
  7  6  1  6
  7  8  1  0
  8  9  1  1
  8 10  1  0
 10 11  1  0
 11 12  1  6
 13 12  1  6
 13 14  1  0
 14 15  1  1
 14 16  1  0
 16 17  1  0
 17 18  1  1
 19 18  1  1
 19 20  1  0
 20 21  1  6
 21 22  1  0
 20 23  1  0
 23 24  1  1
 23 25  1  0
 25 26  1  0
 26 27  2  0
 26 28  1  0
 28 29  1  0
 29 30  1  1
 29 31  1  0
 31 32  1  0
 32 33  2  0
 33 34  1  0
 34 35  2  0
 35 36  1  0
 36 37  1  1
 37 38  1  0
 38 39  2  0
 38 40  1  0
 40 41  1  0
 36 42  1  0
 42 43  1  1
 42 44  1  0
 44 45  1  0
 45 46  1  1
 46 47  1  0
 47 48  2  0
 17 49  1  0
 49 50  1  6
 49 51  1  0
 51 52  1  1
 52 53  1  0
 52 54  1  0
 11 55  1  0
 55 56  1  0
 56 57  1  1
 56 58  1  0
 56  7  1  0
 51 13  1  0
 45 19  1  0
M  END
>  <ChEMBL_IDs>  (98) 
CHEMBL3251867

>  <target_organism>  (98) 
Homo sapiens

>  <target_molecule_pref_name>  (98) 
None

>  <# Known Targets>  (98) 
1.0

>  <Known Targets>  (98) 
CHEMBL612545

>  <smiles>  (98) 
CCCC(=O)O[C@H]1[C@H](C)O[C@@H](O[C@@H]2[C@@H](C)O[C@@H](O[C@@H]3[C@@H](OC)[C@H](O)CC(=O)O[C@H](C)C/C=C/C=C/[C@H](OC(=O)CC)[C@H](C)C[C@@H]3CC=O)[C@H](O)[C@H]2N(C)C)C[C@@]1(C)O

$$$$

     RDKit          2D

 54 56  0  0  0  0  0  0  0  0999 V2000
    5.6205   -1.2990    0.0000 C   0  0  0  0  0  0  0  0  0  0  0  0
    4.8705    0.0000    0.0000 C   0  0  0  0  0  0  0  0  0  0  0  0
    3.3705    0.0000    0.0000 C   0  0  0  0  0  0  0  0  0  0  0  0
    3.0367   -1.4624    0.0000 O   0  0  0  0  0  0  0  0  0  0  0  0
    2.1015   -2.6351    0.0000 C   0  0  0  0  0  0  0  0  0  0  0  0
    3.0367   -3.8079    0.0000 O   0  0  0  0  0  0  0  0  0  0  0  0
    0.7500   -3.2860    0.0000 C   0  0  0  0  0  0  0  0  0  0  0  0
    1.3600   -4.4903    0.0000 C   0  0  0  0  0  0  0  0  0  0  0  0
   -0.7500   -3.2860    0.0000 C   0  0  0  0  0  0  0  0  0  0  0  0
   -1.0838   -4.7484    0.0000 O   0  0  0  0  0  0  0  0  0  0  0  0
    0.0158   -5.7686    0.0000 C   0  0  0  0  0  0  0  0  0  0  0  0
   -0.3180   -7.2310    0.0000 C   0  0  0  0  0  0  0  0  0  0  0  0
    0.7816   -8.2513    0.0000 C   0  0  0  0  0  0  0  0  0  0  0  0
    1.4659   -9.5861    0.0000 C   0  0  0  0  0  0  0  0  0  0  0  0
   -0.4141   -9.1570    0.0000 O   0  0  0  0  0  0  0  0  0  0  0  0
   -0.2276  -10.6453    0.0000 C   0  0  0  0  0  0  0  0  0  0  0  0
    2.2150   -7.8091    0.0000 C   0  0  0  0  0  0  0  0  0  0  0  0
    3.3145   -8.8294    0.0000 O   0  0  0  0  0  0  0  0  0  0  0  0
    2.5487   -6.3467    0.0000 C   0  0  0  0  0  0  0  0  0  0  0  0
    3.9821   -5.9046    0.0000 C   0  0  0  0  0  0  0  0  0  0  0  0
    1.4492   -5.3265    0.0000 O   0  0  0  0  0  0  0  0  0  0  0  0
   -2.1015   -2.6351    0.0000 C   0  0  0  0  0  0  0  0  0  0  0  0
   -3.0367   -3.8079    0.0000 C   0  0  0  0  0  0  0  0  0  0  0  0
   -3.0367   -1.4624    0.0000 C   0  0  0  0  0  0  0  0  0  0  0  0
   -4.3881   -2.1132    0.0000 O   0  0  0  0  0  0  0  0  0  0  0  0
   -5.6275   -1.2682    0.0000 C   0  0  0  0  0  0  0  0  0  0  0  0
   -5.5154    0.2276    0.0000 O   0  0  0  0  0  0  0  0  0  0  0  0
   -6.7548    1.0725    0.0000 C   0  0  0  0  0  0  0  0  0  0  0  0
   -6.6427    2.5684    0.0000 C   0  0  0  0  0  0  0  0  0  0  0  0
   -8.1062    0.4217    0.0000 C   0  0  0  0  0  0  0  0  0  0  0  0
   -8.2183   -1.0741    0.0000 C   0  0  0  0  0  0  0  0  0  0  0  0
   -9.5698   -1.7249    0.0000 N   0  0  0  0  0  0  0  0  0  0  0  0
  -10.8091   -0.8799    0.0000 C   0  0  0  0  0  0  0  0  0  0  0  0
   -9.6819   -3.2207    0.0000 C   0  0  0  0  0  0  0  0  0  0  0  0
  -11.0333   -3.8715    0.0000 C   0  0  0  0  0  0  0  0  0  0  0  0
  -11.1454   -5.3673    0.0000 C   0  0  0  0  0  0  0  0  0  0  0  0
  -12.4969   -6.0182    0.0000 O   0  0  0  0  0  0  0  0  0  0  0  0
   -6.9790   -1.9191    0.0000 C   0  0  0  0  0  0  0  0  0  0  0  0
   -7.0910   -3.4149    0.0000 O   0  0  0  0  0  0  0  0  0  0  0  0
   -3.3705    0.0000    0.0000 C   0  0  0  0  0  0  0  0  0  0  0  0
   -4.6098   -0.8450    0.0000 C   0  0  0  0  0  0  0  0  0  0  0  0
   -4.6098    0.8450    0.0000 O   0  0  0  0  0  0  0  0  0  0  0  0
   -3.0367    1.4624    0.0000 C   0  0  0  0  0  0  0  0  0  0  0  0
   -2.1015    2.6351    0.0000 C   0  0  0  0  0  0  0  0  0  0  0  0
   -3.0367    3.8079    0.0000 C   0  0  0  0  0  0  0  0  0  0  0  0
   -0.7500    3.2860    0.0000 C   0  0  0  0  0  0  0  0  0  0  0  0
   -1.0838    4.7484    0.0000 O   0  0  0  0  0  0  0  0  0  0  0  0
    0.7500    3.2860    0.0000 C   0  0  0  0  0  0  0  0  0  0  0  0
    1.0838    4.7484    0.0000 C   0  0  0  0  0  0  0  0  0  0  0  0
    2.1015    2.6351    0.0000 C   0  0  0  0  0  0  0  0  0  0  0  0
    3.0367    3.8079    0.0000 O   0  0  0  0  0  0  0  0  0  0  0  0
    3.0367    1.4624    0.0000 C   0  0  0  0  0  0  0  0  0  0  0  0
    3.7867    2.7614    0.0000 C   0  0  0  0  0  0  0  0  0  0  0  0
    4.5199    1.2388    0.0000 O   0  0  0  0  0  0  0  0  0  0  0  0
  1  2  1  0
  3  2  1  1
  3  4  1  0
  4  5  1  0
  5  6  2  0
  5  7  1  0
  7  8  1  6
  7  9  1  0
  9 10  1  1
 11 10  1  1
 11 12  1  0
 12 13  1  0
 13 14  1  1
 13 15  1  0
 15 16  1  0
 13 17  1  0
 17 18  1  6
 17 19  1  0
 19 20  1  1
 19 21  1  0
  9 22  1  0
 22 23  1  6
 22 24  1  0
 24 25  1  1
 26 25  1  1
 26 27  1  0
 27 28  1  0
 28 29  1  1
 28 30  1  0
 30 31  1  0
 31 32  1  1
 32 33  1  0
 32 34  1  0
 34 35  1  0
 35 36  1  0
 36 37  1  0
 31 38  1  0
 38 39  1  6
 24 40  1  0
 40 41  1  1
 40 42  1  0
 40 43  1  0
 43 44  1  0
 44 45  1  1
 44 46  1  0
 46 47  1  6
 46 48  1  0
 48 49  1  6
 48 50  1  0
 50 51  1  1
 50 52  1  0
 52 53  1  1
 52 54  1  0
 52  3  1  0
 21 11  1  0
 38 26  1  0
M  END
>  <ChEMBL_IDs>  (99) 
CHEMBL1256544

>  <target_organism>  (99) 
nan

>  <target_molecule_pref_name>  (99) 
None

>  <# Known Targets>  (99) 
1.0

>  <Known Targets>  (99) 
CHEMBL5306

>  <smiles>  (99) 
CC[C@H]1OC(=O)[C@H](C)[C@@H](O[C@@H]2C[C@@](C)(OC)[C@@H](O)[C@H](C)O2)[C@H](C)[C@@H](O[C@@H]2O[C@H](C)C[C@H](N(C)CCCO)[C@H]2O)[C@](C)(O)C[C@@H](C)[C@H](O)[C@H](C)[C@@H](O)[C@]1(C)O

$$$$

     RDKit          2D

 54 56  0  0  0  0  0  0  0  0999 V2000
    5.6205   -1.2990    0.0000 C   0  0  0  0  0  0  0  0  0  0  0  0
    4.8705    0.0000    0.0000 C   0  0  0  0  0  0  0  0  0  0  0  0
    3.3705    0.0000    0.0000 C   0  0  0  0  0  0  0  0  0  0  0  0
    3.0367   -1.4624    0.0000 O   0  0  0  0  0  0  0  0  0  0  0  0
    2.1015   -2.6351    0.0000 C   0  0  0  0  0  0  0  0  0  0  0  0
    3.0367   -3.8079    0.0000 O   0  0  0  0  0  0  0  0  0  0  0  0
    0.7500   -3.2860    0.0000 C   0  0  0  0  0  0  0  0  0  0  0  0
    1.3600   -4.4903    0.0000 C   0  0  0  0  0  0  0  0  0  0  0  0
   -0.7500   -3.2860    0.0000 C   0  0  0  0  0  0  0  0  0  0  0  0
   -1.0838   -4.7484    0.0000 O   0  0  0  0  0  0  0  0  0  0  0  0
    0.0158   -5.7686    0.0000 C   0  0  0  0  0  0  0  0  0  0  0  0
   -0.3180   -7.2310    0.0000 C   0  0  0  0  0  0  0  0  0  0  0  0
    0.7816   -8.2513    0.0000 C   0  0  0  0  0  0  0  0  0  0  0  0
    1.4659   -9.5861    0.0000 C   0  0  0  0  0  0  0  0  0  0  0  0
   -0.4141   -9.1570    0.0000 O   0  0  0  0  0  0  0  0  0  0  0  0
   -0.2276  -10.6453    0.0000 C   0  0  0  0  0  0  0  0  0  0  0  0
    2.2150   -7.8091    0.0000 C   0  0  0  0  0  0  0  0  0  0  0  0
    3.3145   -8.8294    0.0000 O   0  0  0  0  0  0  0  0  0  0  0  0
    2.5487   -6.3467    0.0000 C   0  0  0  0  0  0  0  0  0  0  0  0
    3.9821   -5.9046    0.0000 C   0  0  0  0  0  0  0  0  0  0  0  0
    1.4492   -5.3265    0.0000 O   0  0  0  0  0  0  0  0  0  0  0  0
   -2.1015   -2.6351    0.0000 C   0  0  0  0  0  0  0  0  0  0  0  0
   -3.0367   -3.8079    0.0000 C   0  0  0  0  0  0  0  0  0  0  0  0
   -3.0367   -1.4624    0.0000 C   0  0  0  0  0  0  0  0  0  0  0  0
   -4.3881   -2.1132    0.0000 O   0  0  0  0  0  0  0  0  0  0  0  0
   -5.6275   -1.2682    0.0000 C   0  0  0  0  0  0  0  0  0  0  0  0
   -5.5154    0.2276    0.0000 O   0  0  0  0  0  0  0  0  0  0  0  0
   -6.7548    1.0725    0.0000 C   0  0  0  0  0  0  0  0  0  0  0  0
   -6.6427    2.5684    0.0000 C   0  0  0  0  0  0  0  0  0  0  0  0
   -8.1062    0.4217    0.0000 C   0  0  0  0  0  0  0  0  0  0  0  0
   -8.2183   -1.0741    0.0000 C   0  0  0  0  0  0  0  0  0  0  0  0
   -9.5698   -1.7249    0.0000 N   0  0  0  0  0  0  0  0  0  0  0  0
  -10.8091   -0.8799    0.0000 C   0  0  0  0  0  0  0  0  0  0  0  0
   -9.6819   -3.2207    0.0000 C   0  0  0  0  0  0  0  0  0  0  0  0
  -11.0333   -3.8715    0.0000 C   0  0  0  0  0  0  0  0  0  0  0  0
  -11.1454   -5.3673    0.0000 O   0  0  0  0  0  0  0  0  0  0  0  0
  -12.4969   -6.0182    0.0000 C   0  0  0  0  0  0  0  0  0  0  0  0
   -6.9790   -1.9191    0.0000 C   0  0  0  0  0  0  0  0  0  0  0  0
   -7.0910   -3.4149    0.0000 O   0  0  0  0  0  0  0  0  0  0  0  0
   -3.3705    0.0000    0.0000 C   0  0  0  0  0  0  0  0  0  0  0  0
   -4.6098   -0.8450    0.0000 C   0  0  0  0  0  0  0  0  0  0  0  0
   -4.6098    0.8450    0.0000 O   0  0  0  0  0  0  0  0  0  0  0  0
   -3.0367    1.4624    0.0000 C   0  0  0  0  0  0  0  0  0  0  0  0
   -2.1015    2.6351    0.0000 C   0  0  0  0  0  0  0  0  0  0  0  0
   -3.0367    3.8079    0.0000 C   0  0  0  0  0  0  0  0  0  0  0  0
   -0.7500    3.2860    0.0000 C   0  0  0  0  0  0  0  0  0  0  0  0
   -1.0838    4.7484    0.0000 O   0  0  0  0  0  0  0  0  0  0  0  0
    0.7500    3.2860    0.0000 C   0  0  0  0  0  0  0  0  0  0  0  0
    1.0838    4.7484    0.0000 C   0  0  0  0  0  0  0  0  0  0  0  0
    2.1015    2.6351    0.0000 C   0  0  0  0  0  0  0  0  0  0  0  0
    3.0367    3.8079    0.0000 O   0  0  0  0  0  0  0  0  0  0  0  0
    3.0367    1.4624    0.0000 C   0  0  0  0  0  0  0  0  0  0  0  0
    3.7867    2.7614    0.0000 C   0  0  0  0  0  0  0  0  0  0  0  0
    4.5199    1.2388    0.0000 O   0  0  0  0  0  0  0  0  0  0  0  0
  1  2  1  0
  3  2  1  1
  3  4  1  0
  4  5  1  0
  5  6  2  0
  5  7  1  0
  7  8  1  6
  7  9  1  0
  9 10  1  1
 11 10  1  1
 11 12  1  0
 12 13  1  0
 13 14  1  1
 13 15  1  0
 15 16  1  0
 13 17  1  0
 17 18  1  6
 17 19  1  0
 19 20  1  1
 19 21  1  0
  9 22  1  0
 22 23  1  6
 22 24  1  0
 24 25  1  1
 26 25  1  1
 26 27  1  0
 27 28  1  0
 28 29  1  1
 28 30  1  0
 30 31  1  0
 31 32  1  1
 32 33  1  0
 32 34  1  0
 34 35  1  0
 35 36  1  0
 36 37  1  0
 31 38  1  0
 38 39  1  6
 24 40  1  0
 40 41  1  1
 40 42  1  0
 40 43  1  0
 43 44  1  0
 44 45  1  1
 44 46  1  0
 46 47  1  6
 46 48  1  0
 48 49  1  6
 48 50  1  0
 50 51  1  1
 50 52  1  0
 52 53  1  1
 52 54  1  0
 52  3  1  0
 21 11  1  0
 38 26  1  0
M  END
>  <ChEMBL_IDs>  (100) 
CHEMBL1256543

>  <target_organism>  (100) 
nan

>  <target_molecule_pref_name>  (100) 
None

>  <# Known Targets>  (100) 
1.0

>  <Known Targets>  (100) 
CHEMBL5306

>  <smiles>  (100) 
CC[C@H]1OC(=O)[C@H](C)[C@@H](O[C@@H]2C[C@@](C)(OC)[C@@H](O)[C@H](C)O2)[C@H](C)[C@@H](O[C@@H]2O[C@H](C)C[C@H](N(C)CCOC)[C@H]2O)[C@](C)(O)C[C@@H](C)[C@H](O)[C@H](C)[C@@H](O)[C@]1(C)O

$$$$

     RDKit          2D

 54 56  0  0  0  0  0  0  0  0999 V2000
    5.6205   -1.2990    0.0000 C   0  0  0  0  0  0  0  0  0  0  0  0
    4.8705    0.0000    0.0000 C   0  0  0  0  0  0  0  0  0  0  0  0
    3.3705    0.0000    0.0000 C   0  0  0  0  0  0  0  0  0  0  0  0
    3.0367   -1.4624    0.0000 O   0  0  0  0  0  0  0  0  0  0  0  0
    2.1015   -2.6351    0.0000 C   0  0  0  0  0  0  0  0  0  0  0  0
    3.0367   -3.8079    0.0000 O   0  0  0  0  0  0  0  0  0  0  0  0
    0.7500   -3.2860    0.0000 C   0  0  0  0  0  0  0  0  0  0  0  0
    1.3600   -4.4903    0.0000 C   0  0  0  0  0  0  0  0  0  0  0  0
   -0.7500   -3.2860    0.0000 C   0  0  0  0  0  0  0  0  0  0  0  0
   -1.0838   -4.7484    0.0000 O   0  0  0  0  0  0  0  0  0  0  0  0
    0.0158   -5.7686    0.0000 C   0  0  0  0  0  0  0  0  0  0  0  0
   -0.3180   -7.2310    0.0000 C   0  0  0  0  0  0  0  0  0  0  0  0
    0.7816   -8.2513    0.0000 C   0  0  0  0  0  0  0  0  0  0  0  0
    1.4659   -9.5861    0.0000 C   0  0  0  0  0  0  0  0  0  0  0  0
   -0.4141   -9.1570    0.0000 O   0  0  0  0  0  0  0  0  0  0  0  0
   -0.2276  -10.6453    0.0000 C   0  0  0  0  0  0  0  0  0  0  0  0
    2.2150   -7.8091    0.0000 C   0  0  0  0  0  0  0  0  0  0  0  0
    3.3145   -8.8294    0.0000 O   0  0  0  0  0  0  0  0  0  0  0  0
    2.5487   -6.3467    0.0000 C   0  0  0  0  0  0  0  0  0  0  0  0
    3.9821   -5.9046    0.0000 C   0  0  0  0  0  0  0  0  0  0  0  0
    1.4492   -5.3265    0.0000 O   0  0  0  0  0  0  0  0  0  0  0  0
   -2.1015   -2.6351    0.0000 C   0  0  0  0  0  0  0  0  0  0  0  0
   -3.0367   -3.8079    0.0000 C   0  0  0  0  0  0  0  0  0  0  0  0
   -3.0367   -1.4624    0.0000 C   0  0  0  0  0  0  0  0  0  0  0  0
   -4.3881   -2.1132    0.0000 O   0  0  0  0  0  0  0  0  0  0  0  0
   -5.6275   -1.2682    0.0000 C   0  0  0  0  0  0  0  0  0  0  0  0
   -5.5154    0.2276    0.0000 O   0  0  0  0  0  0  0  0  0  0  0  0
   -6.7548    1.0725    0.0000 C   0  0  0  0  0  0  0  0  0  0  0  0
   -6.6427    2.5684    0.0000 C   0  0  0  0  0  0  0  0  0  0  0  0
   -8.1062    0.4217    0.0000 C   0  0  0  0  0  0  0  0  0  0  0  0
   -8.2183   -1.0741    0.0000 C   0  0  0  0  0  0  0  0  0  0  0  0
   -9.5698   -1.7249    0.0000 N   0  0  0  0  0  0  0  0  0  0  0  0
  -10.8091   -0.8799    0.0000 C   0  0  0  0  0  0  0  0  0  0  0  0
   -9.6819   -3.2207    0.0000 C   0  0  0  0  0  0  0  0  0  0  0  0
  -11.0333   -3.8715    0.0000 C   0  0  0  0  0  0  0  0  0  0  0  0
  -11.1454   -5.3673    0.0000 C   0  0  0  0  0  0  0  0  0  0  0  0
  -12.2727   -3.0266    0.0000 O   0  0  0  0  0  0  0  0  0  0  0  0
   -6.9790   -1.9191    0.0000 C   0  0  0  0  0  0  0  0  0  0  0  0
   -7.0910   -3.4149    0.0000 O   0  0  0  0  0  0  0  0  0  0  0  0
   -3.3705    0.0000    0.0000 C   0  0  0  0  0  0  0  0  0  0  0  0
   -4.6098   -0.8450    0.0000 C   0  0  0  0  0  0  0  0  0  0  0  0
   -4.6098    0.8450    0.0000 O   0  0  0  0  0  0  0  0  0  0  0  0
   -3.0367    1.4624    0.0000 C   0  0  0  0  0  0  0  0  0  0  0  0
   -2.1015    2.6351    0.0000 C   0  0  0  0  0  0  0  0  0  0  0  0
   -3.0367    3.8079    0.0000 C   0  0  0  0  0  0  0  0  0  0  0  0
   -0.7500    3.2860    0.0000 C   0  0  0  0  0  0  0  0  0  0  0  0
   -1.0838    4.7484    0.0000 O   0  0  0  0  0  0  0  0  0  0  0  0
    0.7500    3.2860    0.0000 C   0  0  0  0  0  0  0  0  0  0  0  0
    1.0838    4.7484    0.0000 C   0  0  0  0  0  0  0  0  0  0  0  0
    2.1015    2.6351    0.0000 C   0  0  0  0  0  0  0  0  0  0  0  0
    3.0367    3.8079    0.0000 O   0  0  0  0  0  0  0  0  0  0  0  0
    3.0367    1.4624    0.0000 C   0  0  0  0  0  0  0  0  0  0  0  0
    3.7867    2.7614    0.0000 C   0  0  0  0  0  0  0  0  0  0  0  0
    4.5199    1.2388    0.0000 O   0  0  0  0  0  0  0  0  0  0  0  0
  1  2  1  0
  3  2  1  1
  3  4  1  0
  4  5  1  0
  5  6  2  0
  5  7  1  0
  7  8  1  6
  7  9  1  0
  9 10  1  1
 11 10  1  6
 11 12  1  0
 12 13  1  0
 13 14  1  1
 13 15  1  0
 15 16  1  0
 13 17  1  0
 17 18  1  6
 17 19  1  0
 19 20  1  1
 19 21  1  0
  9 22  1  0
 22 23  1  6
 22 24  1  0
 24 25  1  1
 26 25  1  1
 26 27  1  0
 27 28  1  0
 28 29  1  1
 28 30  1  0
 30 31  1  0
 31 32  1  1
 32 33  1  0
 32 34  1  0
 34 35  1  0
 35 36  1  6
 35 37  1  0
 31 38  1  0
 38 39  1  6
 24 40  1  0
 40 41  1  1
 40 42  1  0
 40 43  1  0
 43 44  1  0
 44 45  1  1
 44 46  1  0
 46 47  1  6
 46 48  1  0
 48 49  1  6
 48 50  1  0
 50 51  1  1
 50 52  1  0
 52 53  1  1
 52 54  1  0
 52  3  1  0
 21 11  1  0
 38 26  1  0
M  END
>  <ChEMBL_IDs>  (101) 
CHEMBL1778154

>  <target_organism>  (101) 
Homo sapiens,None,Escherichia coli K-12

>  <target_molecule_pref_name>  (101) 
None

>  <# Known Targets>  (101) 
1.0

>  <Known Targets>  (101) 
CHEMBL5306

>  <smiles>  (101) 
CC[C@H]1OC(=O)[C@H](C)[C@@H](O[C@H]2C[C@@](C)(OC)[C@@H](O)[C@H](C)O2)[C@H](C)[C@@H](O[C@@H]2O[C@H](C)C[C@H](N(C)C[C@H](C)O)[C@H]2O)[C@](C)(O)C[C@@H](C)[C@H](O)[C@H](C)[C@@H](O)[C@]1(C)O

$$$$

     RDKit          2D

 54 56  0  0  0  0  0  0  0  0999 V2000
    5.6205   -1.2990    0.0000 C   0  0  0  0  0  0  0  0  0  0  0  0
    4.8705    0.0000    0.0000 C   0  0  0  0  0  0  0  0  0  0  0  0
    3.3705    0.0000    0.0000 C   0  0  0  0  0  0  0  0  0  0  0  0
    3.0367   -1.4624    0.0000 O   0  0  0  0  0  0  0  0  0  0  0  0
    2.1015   -2.6351    0.0000 C   0  0  0  0  0  0  0  0  0  0  0  0
    3.0367   -3.8079    0.0000 O   0  0  0  0  0  0  0  0  0  0  0  0
    0.7500   -3.2860    0.0000 C   0  0  0  0  0  0  0  0  0  0  0  0
    1.3600   -4.4903    0.0000 C   0  0  0  0  0  0  0  0  0  0  0  0
   -0.7500   -3.2860    0.0000 C   0  0  0  0  0  0  0  0  0  0  0  0
   -1.0838   -4.7484    0.0000 O   0  0  0  0  0  0  0  0  0  0  0  0
    0.0158   -5.7686    0.0000 C   0  0  0  0  0  0  0  0  0  0  0  0
   -0.3180   -7.2310    0.0000 C   0  0  0  0  0  0  0  0  0  0  0  0
    0.7816   -8.2513    0.0000 C   0  0  0  0  0  0  0  0  0  0  0  0
    1.4659   -9.5861    0.0000 C   0  0  0  0  0  0  0  0  0  0  0  0
   -0.4141   -9.1570    0.0000 O   0  0  0  0  0  0  0  0  0  0  0  0
   -0.2276  -10.6453    0.0000 C   0  0  0  0  0  0  0  0  0  0  0  0
    2.2150   -7.8091    0.0000 C   0  0  0  0  0  0  0  0  0  0  0  0
    3.3145   -8.8294    0.0000 O   0  0  0  0  0  0  0  0  0  0  0  0
    2.5487   -6.3467    0.0000 C   0  0  0  0  0  0  0  0  0  0  0  0
    3.9821   -5.9046    0.0000 C   0  0  0  0  0  0  0  0  0  0  0  0
    1.4492   -5.3265    0.0000 O   0  0  0  0  0  0  0  0  0  0  0  0
   -2.1015   -2.6351    0.0000 C   0  0  0  0  0  0  0  0  0  0  0  0
   -3.0367   -3.8079    0.0000 C   0  0  0  0  0  0  0  0  0  0  0  0
   -3.0367   -1.4624    0.0000 C   0  0  0  0  0  0  0  0  0  0  0  0
   -4.3881   -2.1132    0.0000 O   0  0  0  0  0  0  0  0  0  0  0  0
   -5.6275   -1.2682    0.0000 C   0  0  0  0  0  0  0  0  0  0  0  0
   -5.5154    0.2276    0.0000 O   0  0  0  0  0  0  0  0  0  0  0  0
   -6.7548    1.0725    0.0000 C   0  0  0  0  0  0  0  0  0  0  0  0
   -6.6427    2.5684    0.0000 C   0  0  0  0  0  0  0  0  0  0  0  0
   -8.1062    0.4217    0.0000 C   0  0  0  0  0  0  0  0  0  0  0  0
   -8.2183   -1.0741    0.0000 C   0  0  0  0  0  0  0  0  0  0  0  0
   -9.5698   -1.7249    0.0000 N   0  0  0  0  0  0  0  0  0  0  0  0
  -10.8091   -0.8799    0.0000 C   0  0  0  0  0  0  0  0  0  0  0  0
   -9.6819   -3.2207    0.0000 C   0  0  0  0  0  0  0  0  0  0  0  0
  -11.0333   -3.8715    0.0000 C   0  0  0  0  0  0  0  0  0  0  0  0
  -11.1454   -5.3673    0.0000 C   0  0  0  0  0  0  0  0  0  0  0  0
  -12.2727   -3.0266    0.0000 O   0  0  0  0  0  0  0  0  0  0  0  0
   -6.9790   -1.9191    0.0000 C   0  0  0  0  0  0  0  0  0  0  0  0
   -7.0910   -3.4149    0.0000 O   0  0  0  0  0  0  0  0  0  0  0  0
   -3.3705    0.0000    0.0000 C   0  0  0  0  0  0  0  0  0  0  0  0
   -4.6098   -0.8450    0.0000 C   0  0  0  0  0  0  0  0  0  0  0  0
   -4.6098    0.8450    0.0000 O   0  0  0  0  0  0  0  0  0  0  0  0
   -3.0367    1.4624    0.0000 C   0  0  0  0  0  0  0  0  0  0  0  0
   -2.1015    2.6351    0.0000 C   0  0  0  0  0  0  0  0  0  0  0  0
   -3.0367    3.8079    0.0000 C   0  0  0  0  0  0  0  0  0  0  0  0
   -0.7500    3.2860    0.0000 C   0  0  0  0  0  0  0  0  0  0  0  0
   -1.0838    4.7484    0.0000 O   0  0  0  0  0  0  0  0  0  0  0  0
    0.7500    3.2860    0.0000 C   0  0  0  0  0  0  0  0  0  0  0  0
    1.0838    4.7484    0.0000 C   0  0  0  0  0  0  0  0  0  0  0  0
    2.1015    2.6351    0.0000 C   0  0  0  0  0  0  0  0  0  0  0  0
    3.0367    3.8079    0.0000 O   0  0  0  0  0  0  0  0  0  0  0  0
    3.0367    1.4624    0.0000 C   0  0  0  0  0  0  0  0  0  0  0  0
    3.7867    2.7614    0.0000 C   0  0  0  0  0  0  0  0  0  0  0  0
    4.5199    1.2388    0.0000 O   0  0  0  0  0  0  0  0  0  0  0  0
  1  2  1  0
  3  2  1  1
  3  4  1  0
  4  5  1  0
  5  6  2  0
  5  7  1  0
  7  8  1  6
  7  9  1  0
  9 10  1  1
 11 10  1  1
 11 12  1  0
 12 13  1  0
 13 14  1  1
 13 15  1  0
 15 16  1  0
 13 17  1  0
 17 18  1  6
 17 19  1  0
 19 20  1  1
 19 21  1  0
  9 22  1  0
 22 23  1  6
 22 24  1  0
 24 25  1  1
 26 25  1  1
 26 27  1  0
 27 28  1  0
 28 29  1  1
 28 30  1  0
 30 31  1  0
 31 32  1  1
 32 33  1  0
 32 34  1  0
 34 35  1  0
 35 36  1  6
 35 37  1  0
 31 38  1  0
 38 39  1  6
 24 40  1  0
 40 41  1  1
 40 42  1  0
 40 43  1  0
 43 44  1  0
 44 45  1  1
 44 46  1  0
 46 47  1  6
 46 48  1  0
 48 49  1  6
 48 50  1  0
 50 51  1  1
 50 52  1  0
 52 53  1  1
 52 54  1  0
 52  3  1  0
 21 11  1  0
 38 26  1  0
M  END
>  <ChEMBL_IDs>  (102) 
CHEMBL1256545

>  <target_organism>  (102) 
nan

>  <target_molecule_pref_name>  (102) 
None

>  <# Known Targets>  (102) 
1.0

>  <Known Targets>  (102) 
CHEMBL5306

>  <smiles>  (102) 
CC[C@H]1OC(=O)[C@H](C)[C@@H](O[C@@H]2C[C@@](C)(OC)[C@@H](O)[C@H](C)O2)[C@H](C)[C@@H](O[C@@H]2O[C@H](C)C[C@H](N(C)C[C@H](C)O)[C@H]2O)[C@](C)(O)C[C@@H](C)[C@H](O)[C@H](C)[C@@H](O)[C@]1(C)O

$$$$

     RDKit          2D

 54 56  0  0  0  0  0  0  0  0999 V2000
    5.6205   -1.2990    0.0000 C   0  0  0  0  0  0  0  0  0  0  0  0
    4.8705    0.0000    0.0000 C   0  0  0  0  0  0  0  0  0  0  0  0
    3.3705    0.0000    0.0000 C   0  0  0  0  0  0  0  0  0  0  0  0
    3.0367   -1.4624    0.0000 O   0  0  0  0  0  0  0  0  0  0  0  0
    2.1015   -2.6351    0.0000 C   0  0  0  0  0  0  0  0  0  0  0  0
    3.0367   -3.8079    0.0000 O   0  0  0  0  0  0  0  0  0  0  0  0
    0.7500   -3.2860    0.0000 C   0  0  0  0  0  0  0  0  0  0  0  0
    1.3600   -4.4903    0.0000 C   0  0  0  0  0  0  0  0  0  0  0  0
   -0.7500   -3.2860    0.0000 C   0  0  0  0  0  0  0  0  0  0  0  0
   -1.0838   -4.7484    0.0000 O   0  0  0  0  0  0  0  0  0  0  0  0
    0.0158   -5.7686    0.0000 C   0  0  0  0  0  0  0  0  0  0  0  0
   -0.3180   -7.2310    0.0000 C   0  0  0  0  0  0  0  0  0  0  0  0
    0.7816   -8.2513    0.0000 C   0  0  0  0  0  0  0  0  0  0  0  0
    1.4659   -9.5861    0.0000 C   0  0  0  0  0  0  0  0  0  0  0  0
   -0.4141   -9.1570    0.0000 O   0  0  0  0  0  0  0  0  0  0  0  0
   -0.2276  -10.6453    0.0000 C   0  0  0  0  0  0  0  0  0  0  0  0
    2.2150   -7.8091    0.0000 C   0  0  0  0  0  0  0  0  0  0  0  0
    3.3145   -8.8294    0.0000 O   0  0  0  0  0  0  0  0  0  0  0  0
    2.5487   -6.3467    0.0000 C   0  0  0  0  0  0  0  0  0  0  0  0
    3.9821   -5.9046    0.0000 C   0  0  0  0  0  0  0  0  0  0  0  0
    1.4492   -5.3265    0.0000 O   0  0  0  0  0  0  0  0  0  0  0  0
   -2.1015   -2.6351    0.0000 C   0  0  0  0  0  0  0  0  0  0  0  0
   -3.0367   -3.8079    0.0000 C   0  0  0  0  0  0  0  0  0  0  0  0
   -3.0367   -1.4624    0.0000 C   0  0  0  0  0  0  0  0  0  0  0  0
   -4.3881   -2.1132    0.0000 O   0  0  0  0  0  0  0  0  0  0  0  0
   -5.6275   -1.2682    0.0000 C   0  0  0  0  0  0  0  0  0  0  0  0
   -5.5154    0.2276    0.0000 O   0  0  0  0  0  0  0  0  0  0  0  0
   -6.7548    1.0725    0.0000 C   0  0  0  0  0  0  0  0  0  0  0  0
   -6.6427    2.5684    0.0000 C   0  0  0  0  0  0  0  0  0  0  0  0
   -8.1062    0.4217    0.0000 C   0  0  0  0  0  0  0  0  0  0  0  0
   -8.2183   -1.0741    0.0000 C   0  0  0  0  0  0  0  0  0  0  0  0
   -9.5698   -1.7249    0.0000 N   0  0  0  0  0  0  0  0  0  0  0  0
  -10.8091   -0.8799    0.0000 C   0  0  0  0  0  0  0  0  0  0  0  0
   -9.6819   -3.2207    0.0000 C   0  0  0  0  0  0  0  0  0  0  0  0
  -11.0333   -3.8715    0.0000 C   0  0  0  0  0  0  0  0  0  0  0  0
  -11.1454   -5.3673    0.0000 C   0  0  0  0  0  0  0  0  0  0  0  0
  -12.2727   -3.0266    0.0000 O   0  0  0  0  0  0  0  0  0  0  0  0
   -6.9790   -1.9191    0.0000 C   0  0  0  0  0  0  0  0  0  0  0  0
   -7.0910   -3.4149    0.0000 O   0  0  0  0  0  0  0  0  0  0  0  0
   -3.3705    0.0000    0.0000 C   0  0  0  0  0  0  0  0  0  0  0  0
   -4.6098   -0.8450    0.0000 C   0  0  0  0  0  0  0  0  0  0  0  0
   -4.6098    0.8450    0.0000 O   0  0  0  0  0  0  0  0  0  0  0  0
   -3.0367    1.4624    0.0000 C   0  0  0  0  0  0  0  0  0  0  0  0
   -2.1015    2.6351    0.0000 C   0  0  0  0  0  0  0  0  0  0  0  0
   -3.0367    3.8079    0.0000 C   0  0  0  0  0  0  0  0  0  0  0  0
   -0.7500    3.2860    0.0000 C   0  0  0  0  0  0  0  0  0  0  0  0
   -1.0838    4.7484    0.0000 O   0  0  0  0  0  0  0  0  0  0  0  0
    0.7500    3.2860    0.0000 C   0  0  0  0  0  0  0  0  0  0  0  0
    1.0838    4.7484    0.0000 C   0  0  0  0  0  0  0  0  0  0  0  0
    2.1015    2.6351    0.0000 C   0  0  0  0  0  0  0  0  0  0  0  0
    3.0367    3.8079    0.0000 O   0  0  0  0  0  0  0  0  0  0  0  0
    3.0367    1.4624    0.0000 C   0  0  0  0  0  0  0  0  0  0  0  0
    3.7867    2.7614    0.0000 C   0  0  0  0  0  0  0  0  0  0  0  0
    4.5199    1.2388    0.0000 O   0  0  0  0  0  0  0  0  0  0  0  0
  1  2  1  0
  3  2  1  1
  3  4  1  0
  4  5  1  0
  5  6  2  0
  5  7  1  0
  7  8  1  6
  7  9  1  0
  9 10  1  1
 11 10  1  1
 11 12  1  0
 12 13  1  0
 13 14  1  1
 13 15  1  0
 15 16  1  0
 13 17  1  0
 17 18  1  6
 17 19  1  0
 19 20  1  1
 19 21  1  0
  9 22  1  0
 22 23  1  6
 22 24  1  0
 24 25  1  1
 26 25  1  1
 26 27  1  0
 27 28  1  0
 28 29  1  1
 28 30  1  0
 30 31  1  0
 31 32  1  1
 32 33  1  0
 32 34  1  0
 34 35  1  0
 35 36  1  1
 35 37  1  0
 31 38  1  0
 38 39  1  6
 24 40  1  0
 40 41  1  1
 40 42  1  0
 40 43  1  0
 43 44  1  0
 44 45  1  1
 44 46  1  0
 46 47  1  6
 46 48  1  0
 48 49  1  6
 48 50  1  0
 50 51  1  1
 50 52  1  0
 52 53  1  1
 52 54  1  0
 52  3  1  0
 21 11  1  0
 38 26  1  0
M  END
>  <ChEMBL_IDs>  (103) 
CHEMBL1256546

>  <target_organism>  (103) 
nan

>  <target_molecule_pref_name>  (103) 
None

>  <# Known Targets>  (103) 
1.0

>  <Known Targets>  (103) 
CHEMBL5306

>  <smiles>  (103) 
CC[C@H]1OC(=O)[C@H](C)[C@@H](O[C@@H]2C[C@@](C)(OC)[C@@H](O)[C@H](C)O2)[C@H](C)[C@@H](O[C@@H]2O[C@H](C)C[C@H](N(C)C[C@@H](C)O)[C@H]2O)[C@](C)(O)C[C@@H](C)[C@H](O)[C@H](C)[C@@H](O)[C@]1(C)O

$$$$

     RDKit          2D

 55 57  0  0  0  0  0  0  0  0999 V2000
    5.6205   -1.2990    0.0000 C   0  0  0  0  0  0  0  0  0  0  0  0
    4.8705    0.0000    0.0000 C   0  0  0  0  0  0  0  0  0  0  0  0
    3.3705    0.0000    0.0000 C   0  0  0  0  0  0  0  0  0  0  0  0
    3.0367   -1.4624    0.0000 O   0  0  0  0  0  0  0  0  0  0  0  0
    2.1015   -2.6351    0.0000 C   0  0  0  0  0  0  0  0  0  0  0  0
    3.0367   -3.8079    0.0000 O   0  0  0  0  0  0  0  0  0  0  0  0
    0.7500   -3.2860    0.0000 C   0  0  0  0  0  0  0  0  0  0  0  0
    1.3600   -4.4903    0.0000 C   0  0  0  0  0  0  0  0  0  0  0  0
   -0.7500   -3.2860    0.0000 C   0  0  0  0  0  0  0  0  0  0  0  0
   -1.0838   -4.7484    0.0000 O   0  0  0  0  0  0  0  0  0  0  0  0
    0.0158   -5.7686    0.0000 C   0  0  0  0  0  0  0  0  0  0  0  0
   -0.3180   -7.2310    0.0000 C   0  0  0  0  0  0  0  0  0  0  0  0
    0.7816   -8.2513    0.0000 C   0  0  0  0  0  0  0  0  0  0  0  0
    1.4659   -9.5861    0.0000 C   0  0  0  0  0  0  0  0  0  0  0  0
   -0.4141   -9.1570    0.0000 O   0  0  0  0  0  0  0  0  0  0  0  0
   -0.2276  -10.6453    0.0000 C   0  0  0  0  0  0  0  0  0  0  0  0
    2.2150   -7.8091    0.0000 C   0  0  0  0  0  0  0  0  0  0  0  0
    3.3145   -8.8294    0.0000 O   0  0  0  0  0  0  0  0  0  0  0  0
    2.5487   -6.3467    0.0000 C   0  0  0  0  0  0  0  0  0  0  0  0
    3.9821   -5.9046    0.0000 C   0  0  0  0  0  0  0  0  0  0  0  0
    1.4492   -5.3265    0.0000 O   0  0  0  0  0  0  0  0  0  0  0  0
   -2.1015   -2.6351    0.0000 C   0  0  0  0  0  0  0  0  0  0  0  0
   -3.0367   -3.8079    0.0000 C   0  0  0  0  0  0  0  0  0  0  0  0
   -3.0367   -1.4624    0.0000 C   0  0  0  0  0  0  0  0  0  0  0  0
   -4.3881   -2.1132    0.0000 O   0  0  0  0  0  0  0  0  0  0  0  0
   -5.6275   -1.2682    0.0000 C   0  0  0  0  0  0  0  0  0  0  0  0
   -5.5154    0.2276    0.0000 O   0  0  0  0  0  0  0  0  0  0  0  0
   -6.7548    1.0725    0.0000 C   0  0  0  0  0  0  0  0  0  0  0  0
   -6.6427    2.5684    0.0000 C   0  0  0  0  0  0  0  0  0  0  0  0
   -8.1062    0.4217    0.0000 C   0  0  0  0  0  0  0  0  0  0  0  0
   -8.2183   -1.0741    0.0000 C   0  0  0  0  0  0  0  0  0  0  0  0
   -9.5698   -1.7249    0.0000 N   0  0  0  0  0  0  0  0  0  0  0  0
  -10.8091   -0.8799    0.0000 C   0  0  0  0  0  0  0  0  0  0  0  0
   -9.6819   -3.2207    0.0000 C   0  0  0  0  0  0  0  0  0  0  0  0
  -11.0333   -3.8715    0.0000 C   0  0  0  0  0  0  0  0  0  0  0  0
  -12.2727   -3.0266    0.0000 O   0  0  0  0  0  0  0  0  0  0  0  0
  -11.1454   -5.3673    0.0000 C   0  0  0  0  0  0  0  0  0  0  0  0
  -12.4969   -6.0182    0.0000 O   0  0  0  0  0  0  0  0  0  0  0  0
   -6.9790   -1.9191    0.0000 C   0  0  0  0  0  0  0  0  0  0  0  0
   -7.0910   -3.4149    0.0000 O   0  0  0  0  0  0  0  0  0  0  0  0
   -3.3705    0.0000    0.0000 C   0  0  0  0  0  0  0  0  0  0  0  0
   -4.6098   -0.8450    0.0000 C   0  0  0  0  0  0  0  0  0  0  0  0
   -4.6098    0.8450    0.0000 O   0  0  0  0  0  0  0  0  0  0  0  0
   -3.0367    1.4624    0.0000 C   0  0  0  0  0  0  0  0  0  0  0  0
   -2.1015    2.6351    0.0000 C   0  0  0  0  0  0  0  0  0  0  0  0
   -3.0367    3.8079    0.0000 C   0  0  0  0  0  0  0  0  0  0  0  0
   -0.7500    3.2860    0.0000 C   0  0  0  0  0  0  0  0  0  0  0  0
   -1.0838    4.7484    0.0000 O   0  0  0  0  0  0  0  0  0  0  0  0
    0.7500    3.2860    0.0000 C   0  0  0  0  0  0  0  0  0  0  0  0
    1.0838    4.7484    0.0000 C   0  0  0  0  0  0  0  0  0  0  0  0
    2.1015    2.6351    0.0000 C   0  0  0  0  0  0  0  0  0  0  0  0
    3.0367    3.8079    0.0000 O   0  0  0  0  0  0  0  0  0  0  0  0
    3.0367    1.4624    0.0000 C   0  0  0  0  0  0  0  0  0  0  0  0
    3.7867    2.7614    0.0000 C   0  0  0  0  0  0  0  0  0  0  0  0
    4.5199    1.2388    0.0000 O   0  0  0  0  0  0  0  0  0  0  0  0
  1  2  1  0
  3  2  1  1
  3  4  1  0
  4  5  1  0
  5  6  2  0
  5  7  1  0
  7  8  1  6
  7  9  1  0
  9 10  1  1
 11 10  1  1
 11 12  1  0
 12 13  1  0
 13 14  1  1
 13 15  1  0
 15 16  1  0
 13 17  1  0
 17 18  1  6
 17 19  1  0
 19 20  1  1
 19 21  1  0
  9 22  1  0
 22 23  1  6
 22 24  1  0
 24 25  1  1
 26 25  1  1
 26 27  1  0
 27 28  1  0
 28 29  1  1
 28 30  1  0
 30 31  1  0
 31 32  1  1
 32 33  1  0
 32 34  1  0
 34 35  1  0
 35 36  1  0
 35 37  1  0
 37 38  1  0
 31 39  1  0
 39 40  1  6
 24 41  1  0
 41 42  1  1
 41 43  1  0
 41 44  1  0
 44 45  1  0
 45 46  1  1
 45 47  1  0
 47 48  1  6
 47 49  1  0
 49 50  1  6
 49 51  1  0
 51 52  1  1
 51 53  1  0
 53 54  1  1
 53 55  1  0
 53  3  1  0
 21 11  1  0
 39 26  1  0
M  END
>  <ChEMBL_IDs>  (104) 
CHEMBL1256548

>  <target_organism>  (104) 
nan

>  <target_molecule_pref_name>  (104) 
None

>  <# Known Targets>  (104) 
1.0

>  <Known Targets>  (104) 
CHEMBL5306

>  <smiles>  (104) 
CC[C@H]1OC(=O)[C@H](C)[C@@H](O[C@@H]2C[C@@](C)(OC)[C@@H](O)[C@H](C)O2)[C@H](C)[C@@H](O[C@@H]2O[C@H](C)C[C@H](N(C)CC(O)CO)[C@H]2O)[C@](C)(O)C[C@@H](C)[C@H](O)[C@H](C)[C@@H](O)[C@]1(C)O

$$$$

     RDKit          2D

 55 57  0  0  0  0  0  0  0  0999 V2000
    6.0944   -1.2990    0.0000 C   0  0  0  0  0  0  0  0  0  0  0  0
    5.3444    0.0000    0.0000 O   0  0  0  0  0  0  0  0  0  0  0  0
    3.8444    0.0000    0.0000 C   0  0  0  0  0  0  0  0  0  0  0  0
    3.5517   -1.4712    0.0000 C   0  0  0  0  0  0  0  0  0  0  0  0
    4.9376   -2.0452    0.0000 O   0  0  0  0  0  0  0  0  0  0  0  0
    5.1333   -3.5324    0.0000 C   0  0  0  0  0  0  0  0  0  0  0  0
    3.9433   -4.4455    0.0000 O   0  0  0  0  0  0  0  0  0  0  0  0
    4.1391   -5.9327    0.0000 C   0  0  0  0  0  0  0  0  0  0  0  0
    2.9491   -6.8458    0.0000 C   0  0  0  0  0  0  0  0  0  0  0  0
    5.5249   -6.5067    0.0000 C   0  0  0  0  0  0  0  0  0  0  0  0
    5.7207   -7.9939    0.0000 O   0  0  0  0  0  0  0  0  0  0  0  0
    4.5307   -8.9070    0.0000 C   0  0  0  0  0  0  0  0  0  0  0  0
    3.1449   -8.3330    0.0000 C   0  0  0  0  0  0  0  0  0  0  0  0
    1.9548   -9.2461    0.0000 C   0  0  0  0  0  0  0  0  0  0  0  0
    0.5243   -9.6972    0.0000 C   0  0  0  0  0  0  0  0  0  0  0  0
    1.2622   -7.9156    0.0000 O   0  0  0  0  0  0  0  0  0  0  0  0
    2.1506  -10.7333    0.0000 C   0  0  0  0  0  0  0  0  0  0  0  0
    0.9606  -11.6464    0.0000 O   0  0  0  0  0  0  0  0  0  0  0  0
    3.5364  -11.3073    0.0000 C   0  0  0  0  0  0  0  0  0  0  0  0
    3.7322  -12.7945    0.0000 C   0  0  0  0  0  0  0  0  0  0  0  0
    4.7265  -10.3942    0.0000 O   0  0  0  0  0  0  0  0  0  0  0  0
    6.7150   -5.5936    0.0000 C   0  0  0  0  0  0  0  0  0  0  0  0
    8.1008   -6.1676    0.0000 N   0  0  0  0  0  0  0  0  0  0  0  0
    8.2966   -7.6548    0.0000 C   0  0  0  0  0  0  0  0  0  0  0  0
    9.2908   -5.2544    0.0000 C   0  0  0  0  0  0  0  0  0  0  0  0
    6.5192   -4.1064    0.0000 C   0  0  0  0  0  0  0  0  0  0  0  0
    7.7092   -3.1933    0.0000 O   0  0  0  0  0  0  0  0  0  0  0  0
    2.7184   -2.7184    0.0000 C   0  0  0  0  0  0  0  0  0  0  0  0
    3.7790   -3.7790    0.0000 C   0  0  0  0  0  0  0  0  0  0  0  0
    3.3908   -5.2279    0.0000 C   0  0  0  0  0  0  0  0  0  0  0  0
    4.1633   -6.5137    0.0000 O   0  0  0  0  0  0  0  0  0  0  0  0
    1.4712   -3.5517    0.0000 C   0  0  0  0  0  0  0  0  0  0  0  0
   -0.0000   -3.8444    0.0000 C   0  0  0  0  0  0  0  0  0  0  0  0
   -0.0000   -5.3444    0.0000 C   0  0  0  0  0  0  0  0  0  0  0  0
   -1.4712   -3.5517    0.0000 C   0  0  0  0  0  0  0  0  0  0  0  0
   -2.0452   -4.9376    0.0000 O   0  0  0  0  0  0  0  0  0  0  0  0
   -3.5324   -5.1333    0.0000 C   0  0  0  0  0  0  0  0  0  0  0  0
   -4.1064   -6.5192    0.0000 C   0  0  0  0  0  0  0  0  0  0  0  0
   -4.4455   -3.9433    0.0000 O   0  0  0  0  0  0  0  0  0  0  0  0
   -2.7184   -2.7184    0.0000 C   0  0  0  0  0  0  0  0  0  0  0  0
   -3.5517   -1.4712    0.0000 C   0  0  0  0  0  0  0  0  0  0  0  0
   -3.8444    0.0000    0.0000 C   0  0  0  0  0  0  0  0  0  0  0  0
   -3.5517    1.4712    0.0000 C   0  0  0  0  0  0  0  0  0  0  0  0
   -2.7184    2.7184    0.0000 C   0  0  0  0  0  0  0  0  0  0  0  0
   -1.4712    3.5517    0.0000 C   0  0  0  0  0  0  0  0  0  0  0  0
   -2.0452    4.9376    0.0000 C   0  0  0  0  0  0  0  0  0  0  0  0
    0.0000    3.8444    0.0000 O   0  0  0  0  0  0  0  0  0  0  0  0
    1.4712    3.5517    0.0000 C   0  0  0  0  0  0  0  0  0  0  0  0
    2.0452    4.9376    0.0000 O   0  0  0  0  0  0  0  0  0  0  0  0
    2.7184    2.7184    0.0000 C   0  0  0  0  0  0  0  0  0  0  0  0
    3.5517    1.4712    0.0000 C   0  0  0  0  0  0  0  0  0  0  0  0
    4.9376    2.0452    0.0000 O   0  0  0  0  0  0  0  0  0  0  0  0
    6.1276    1.1321    0.0000 C   0  0  0  0  0  0  0  0  0  0  0  0
    7.5134    1.7061    0.0000 C   0  0  0  0  0  0  0  0  0  0  0  0
    6.2975   -0.3583    0.0000 O   0  0  0  0  0  0  0  0  0  0  0  0
  1  2  1  0
  3  2  1  6
  3  4  1  0
  4  5  1  1
  6  5  1  1
  6  7  1  0
  7  8  1  0
  8  9  1  1
  8 10  1  0
 10 11  1  6
 12 11  1  6
 12 13  1  0
 13 14  1  0
 14 15  1  1
 14 16  1  0
 14 17  1  0
 17 18  1  6
 17 19  1  0
 19 20  1  1
 19 21  1  0
 10 22  1  0
 22 23  1  1
 23 24  1  0
 23 25  1  0
 22 26  1  0
 26 27  1  6
  4 28  1  0
 28 29  1  1
 29 30  1  0
 30 31  2  0
 28 32  1  0
 32 33  1  0
 33 34  1  1
 33 35  1  0
 35 36  1  1
 36 37  1  0
 37 38  1  0
 37 39  2  0
 35 40  1  0
 40 41  2  0
 41 42  1  0
 42 43  2  0
 43 44  1  0
 44 45  1  0
 45 46  1  1
 45 47  1  0
 47 48  1  0
 48 49  2  0
 48 50  1  0
 50 51  1  0
 51 52  1  1
 52 53  1  0
 53 54  1  0
 53 55  2  0
 51  3  1  0
 26  6  1  0
 21 12  1  0
M  END
>  <ChEMBL_IDs>  (105) 
CHEMBL3244597

>  <target_organism>  (105) 
None

>  <target_molecule_pref_name>  (105) 
None

>  <# Known Targets>  (105) 
1.0

>  <Known Targets>  (105) 
CHEMBL612545

>  <smiles>  (105) 
CO[C@@H]1[C@@H](O[C@@H]2O[C@H](C)[C@@H](O[C@H]3C[C@@](C)(O)[C@@H](O)[C@H](C)O3)[C@H](N(C)C)[C@H]2O)[C@@H](CC=O)C[C@@H](C)[C@@H](OC(C)=O)/C=C/C=C/C[C@@H](C)OC(=O)C[C@H]1OC(C)=O

$$$$

     RDKit          2D

 55 57  0  0  0  0  0  0  0  0999 V2000
    6.0944   -1.2990    0.0000 C   0  0  0  0  0  0  0  0  0  0  0  0
    5.3444    0.0000    0.0000 O   0  0  0  0  0  0  0  0  0  0  0  0
    3.8444    0.0000    0.0000 C   0  0  0  0  0  0  0  0  0  0  0  0
    3.5517   -1.4712    0.0000 C   0  0  0  0  0  0  0  0  0  0  0  0
    4.9376   -2.0452    0.0000 O   0  0  0  0  0  0  0  0  0  0  0  0
    5.1333   -3.5324    0.0000 C   0  0  0  0  0  0  0  0  0  0  0  0
    3.9433   -4.4455    0.0000 O   0  0  0  0  0  0  0  0  0  0  0  0
    4.1391   -5.9327    0.0000 C   0  0  0  0  0  0  0  0  0  0  0  0
    2.9491   -6.8458    0.0000 C   0  0  0  0  0  0  0  0  0  0  0  0
    5.5249   -6.5067    0.0000 C   0  0  0  0  0  0  0  0  0  0  0  0
    5.7207   -7.9939    0.0000 O   0  0  0  0  0  0  0  0  0  0  0  0
    4.5307   -8.9070    0.0000 C   0  0  0  0  0  0  0  0  0  0  0  0
    3.1449   -8.3330    0.0000 C   0  0  0  0  0  0  0  0  0  0  0  0
    1.9548   -9.2461    0.0000 C   0  0  0  0  0  0  0  0  0  0  0  0
    0.5243   -9.6972    0.0000 C   0  0  0  0  0  0  0  0  0  0  0  0
    1.2622   -7.9156    0.0000 O   0  0  0  0  0  0  0  0  0  0  0  0
    2.1506  -10.7333    0.0000 C   0  0  0  0  0  0  0  0  0  0  0  0
    0.9606  -11.6464    0.0000 O   0  0  0  0  0  0  0  0  0  0  0  0
    1.1564  -13.1336    0.0000 C   0  0  0  0  0  0  0  0  0  0  0  0
   -0.0336  -14.0468    0.0000 C   0  0  0  0  0  0  0  0  0  0  0  0
    2.5422  -13.7076    0.0000 O   0  0  0  0  0  0  0  0  0  0  0  0
    3.5364  -11.3073    0.0000 C   0  0  0  0  0  0  0  0  0  0  0  0
    3.7322  -12.7945    0.0000 C   0  0  0  0  0  0  0  0  0  0  0  0
    4.7265  -10.3942    0.0000 O   0  0  0  0  0  0  0  0  0  0  0  0
    6.7150   -5.5936    0.0000 C   0  0  0  0  0  0  0  0  0  0  0  0
    8.1008   -6.1676    0.0000 N   0  0  0  0  0  0  0  0  0  0  0  0
    8.2966   -7.6548    0.0000 C   0  0  0  0  0  0  0  0  0  0  0  0
    9.2908   -5.2544    0.0000 C   0  0  0  0  0  0  0  0  0  0  0  0
    6.5192   -4.1064    0.0000 C   0  0  0  0  0  0  0  0  0  0  0  0
    7.7092   -3.1933    0.0000 O   0  0  0  0  0  0  0  0  0  0  0  0
    2.7184   -2.7184    0.0000 C   0  0  0  0  0  0  0  0  0  0  0  0
    3.7790   -3.7790    0.0000 C   0  0  0  0  0  0  0  0  0  0  0  0
    3.3908   -5.2279    0.0000 C   0  0  0  0  0  0  0  0  0  0  0  0
    4.1633   -6.5137    0.0000 O   0  0  0  0  0  0  0  0  0  0  0  0
    1.4712   -3.5517    0.0000 C   0  0  0  0  0  0  0  0  0  0  0  0
   -0.0000   -3.8444    0.0000 C   0  0  0  0  0  0  0  0  0  0  0  0
   -0.0000   -5.3444    0.0000 C   0  0  0  0  0  0  0  0  0  0  0  0
   -1.4712   -3.5517    0.0000 C   0  0  0  0  0  0  0  0  0  0  0  0
   -2.0452   -4.9376    0.0000 O   0  0  0  0  0  0  0  0  0  0  0  0
   -2.7184   -2.7184    0.0000 C   0  0  0  0  0  0  0  0  0  0  0  0
   -3.5517   -1.4712    0.0000 C   0  0  0  0  0  0  0  0  0  0  0  0
   -3.8444    0.0000    0.0000 C   0  0  0  0  0  0  0  0  0  0  0  0
   -3.5517    1.4712    0.0000 C   0  0  0  0  0  0  0  0  0  0  0  0
   -2.7184    2.7184    0.0000 C   0  0  0  0  0  0  0  0  0  0  0  0
   -1.4712    3.5517    0.0000 C   0  0  0  0  0  0  0  0  0  0  0  0
   -2.0452    4.9376    0.0000 C   0  0  0  0  0  0  0  0  0  0  0  0
    0.0000    3.8444    0.0000 O   0  0  0  0  0  0  0  0  0  0  0  0
    1.4712    3.5517    0.0000 C   0  0  0  0  0  0  0  0  0  0  0  0
    2.0452    4.9376    0.0000 O   0  0  0  0  0  0  0  0  0  0  0  0
    2.7184    2.7184    0.0000 C   0  0  0  0  0  0  0  0  0  0  0  0
    3.5517    1.4712    0.0000 C   0  0  0  0  0  0  0  0  0  0  0  0
    4.9376    2.0452    0.0000 O   0  0  0  0  0  0  0  0  0  0  0  0
    6.1276    1.1321    0.0000 C   0  0  0  0  0  0  0  0  0  0  0  0
    7.5134    1.7061    0.0000 C   0  0  0  0  0  0  0  0  0  0  0  0
    6.2975   -0.3583    0.0000 O   0  0  0  0  0  0  0  0  0  0  0  0
  1  2  1  0
  3  2  1  6
  3  4  1  0
  4  5  1  1
  6  5  1  1
  6  7  1  0
  7  8  1  0
  8  9  1  1
  8 10  1  0
 10 11  1  6
 12 11  1  6
 12 13  1  0
 13 14  1  0
 14 15  1  1
 14 16  1  0
 14 17  1  0
 17 18  1  6
 18 19  1  0
 19 20  1  0
 19 21  2  0
 17 22  1  0
 22 23  1  1
 22 24  1  0
 10 25  1  0
 25 26  1  1
 26 27  1  0
 26 28  1  0
 25 29  1  0
 29 30  1  6
  4 31  1  0
 31 32  1  1
 32 33  1  0
 33 34  2  0
 31 35  1  0
 35 36  1  0
 36 37  1  1
 36 38  1  0
 38 39  1  1
 38 40  1  0
 40 41  2  0
 41 42  1  0
 42 43  2  0
 43 44  1  0
 44 45  1  0
 45 46  1  1
 45 47  1  0
 47 48  1  0
 48 49  2  0
 48 50  1  0
 50 51  1  0
 51 52  1  1
 52 53  1  0
 53 54  1  0
 53 55  2  0
 51  3  1  0
 29  6  1  0
 24 12  1  0
M  END
>  <ChEMBL_IDs>  (106) 
CHEMBL3251855

>  <target_organism>  (106) 
None

>  <target_molecule_pref_name>  (106) 
None

>  <# Known Targets>  (106) 
1.0

>  <Known Targets>  (106) 
CHEMBL612545

>  <smiles>  (106) 
CO[C@@H]1[C@@H](O[C@@H]2O[C@H](C)[C@@H](O[C@H]3C[C@@](C)(O)[C@@H](OC(C)=O)[C@H](C)O3)[C@H](N(C)C)[C@H]2O)[C@@H](CC=O)C[C@@H](C)[C@@H](O)/C=C/C=C/C[C@@H](C)OC(=O)C[C@H]1OC(C)=O

$$$$

     RDKit          2D

 55 57  0  0  0  0  0  0  0  0999 V2000
    6.0944    1.2990    0.0000 C   0  0  0  0  0  0  0  0  0  0  0  0
    5.3444    0.0000    0.0000 O   0  0  0  0  0  0  0  0  0  0  0  0
    3.8444    0.0000    0.0000 C   0  0  0  0  0  0  0  0  0  0  0  0
    3.5517   -1.4712    0.0000 C   0  0  0  0  0  0  0  0  0  0  0  0
    4.9376   -2.0452    0.0000 O   0  0  0  0  0  0  0  0  0  0  0  0
    6.1276   -1.1321    0.0000 C   0  0  0  0  0  0  0  0  0  0  0  0
    5.9318    0.3551    0.0000 O   0  0  0  0  0  0  0  0  0  0  0  0
    7.1218    1.2682    0.0000 C   0  0  0  0  0  0  0  0  0  0  0  0
    6.9260    2.7554    0.0000 C   0  0  0  0  0  0  0  0  0  0  0  0
    8.5076    0.6942    0.0000 C   0  0  0  0  0  0  0  0  0  0  0  0
    9.6977    1.6074    0.0000 O   0  0  0  0  0  0  0  0  0  0  0  0
    9.5019    3.0945    0.0000 C   0  0  0  0  0  0  0  0  0  0  0  0
   10.6919    4.0077    0.0000 C   0  0  0  0  0  0  0  0  0  0  0  0
   10.4961    5.4948    0.0000 C   0  0  0  0  0  0  0  0  0  0  0  0
   10.8208    6.9593    0.0000 C   0  0  0  0  0  0  0  0  0  0  0  0
   11.9947    5.4294    0.0000 O   0  0  0  0  0  0  0  0  0  0  0  0
    9.1103    6.0689    0.0000 C   0  0  0  0  0  0  0  0  0  0  0  0
    8.9145    7.5560    0.0000 O   0  0  0  0  0  0  0  0  0  0  0  0
    7.5287    8.1301    0.0000 C   0  0  0  0  0  0  0  0  0  0  0  0
    7.3329    9.6172    0.0000 C   0  0  0  0  0  0  0  0  0  0  0  0
    6.3387    7.2169    0.0000 O   0  0  0  0  0  0  0  0  0  0  0  0
    7.9203    5.1557    0.0000 C   0  0  0  0  0  0  0  0  0  0  0  0
    6.5345    5.7298    0.0000 C   0  0  0  0  0  0  0  0  0  0  0  0
    8.1161    3.6686    0.0000 O   0  0  0  0  0  0  0  0  0  0  0  0
    8.7034   -0.7929    0.0000 C   0  0  0  0  0  0  0  0  0  0  0  0
   10.0893   -1.3670    0.0000 N   0  0  0  0  0  0  0  0  0  0  0  0
   11.2793   -0.4538    0.0000 C   0  0  0  0  0  0  0  0  0  0  0  0
   10.2850   -2.8541    0.0000 C   0  0  0  0  0  0  0  0  0  0  0  0
    7.5134   -1.7061    0.0000 C   0  0  0  0  0  0  0  0  0  0  0  0
    7.7092   -3.1933    0.0000 O   0  0  0  0  0  0  0  0  0  0  0  0
    2.7184   -2.7184    0.0000 C   0  0  0  0  0  0  0  0  0  0  0  0
    3.7790   -3.7790    0.0000 C   0  0  0  0  0  0  0  0  0  0  0  0
    3.3908   -5.2279    0.0000 C   0  0  0  0  0  0  0  0  0  0  0  0
    4.4515   -6.2886    0.0000 O   0  0  0  0  0  0  0  0  0  0  0  0
    1.4712   -3.5517    0.0000 C   0  0  0  0  0  0  0  0  0  0  0  0
   -0.0000   -3.8444    0.0000 C   0  0  0  0  0  0  0  0  0  0  0  0
   -0.0000   -5.3444    0.0000 C   0  0  0  0  0  0  0  0  0  0  0  0
   -1.4712   -3.5517    0.0000 C   0  0  0  0  0  0  0  0  0  0  0  0
   -2.0452   -4.9376    0.0000 O   0  0  0  0  0  0  0  0  0  0  0  0
   -3.5324   -5.1333    0.0000 C   0  0  0  0  0  0  0  0  0  0  0  0
   -4.1064   -6.5192    0.0000 C   0  0  0  0  0  0  0  0  0  0  0  0
   -4.4455   -3.9433    0.0000 O   0  0  0  0  0  0  0  0  0  0  0  0
   -2.7184   -2.7184    0.0000 C   0  0  0  0  0  0  0  0  0  0  0  0
   -3.5517   -1.4712    0.0000 C   0  0  0  0  0  0  0  0  0  0  0  0
   -3.8444    0.0000    0.0000 C   0  0  0  0  0  0  0  0  0  0  0  0
   -3.5517    1.4712    0.0000 C   0  0  0  0  0  0  0  0  0  0  0  0
   -2.7184    2.7184    0.0000 C   0  0  0  0  0  0  0  0  0  0  0  0
   -1.4712    3.5517    0.0000 C   0  0  0  0  0  0  0  0  0  0  0  0
   -2.0452    4.9376    0.0000 C   0  0  0  0  0  0  0  0  0  0  0  0
    0.0000    3.8444    0.0000 O   0  0  0  0  0  0  0  0  0  0  0  0
    1.4712    3.5517    0.0000 C   0  0  0  0  0  0  0  0  0  0  0  0
    2.0452    4.9376    0.0000 O   0  0  0  0  0  0  0  0  0  0  0  0
    2.7184    2.7184    0.0000 C   0  0  0  0  0  0  0  0  0  0  0  0
    3.5517    1.4712    0.0000 C   0  0  0  0  0  0  0  0  0  0  0  0
    4.9376    2.0452    0.0000 O   0  0  0  0  0  0  0  0  0  0  0  0
  1  2  1  0
  3  2  1  6
  3  4  1  0
  4  5  1  1
  6  5  1  6
  6  7  1  0
  7  8  1  0
  8  9  1  6
  8 10  1  0
 10 11  1  1
 12 11  1  6
 12 13  1  0
 13 14  1  0
 14 15  1  1
 14 16  1  0
 14 17  1  0
 17 18  1  6
 18 19  1  0
 19 20  1  0
 19 21  2  0
 17 22  1  0
 22 23  1  1
 22 24  1  0
 10 25  1  0
 25 26  1  6
 26 27  1  0
 26 28  1  0
 25 29  1  0
 29 30  1  1
  4 31  1  0
 31 32  1  1
 32 33  1  0
 33 34  2  0
 31 35  1  0
 35 36  1  0
 36 37  1  1
 36 38  1  0
 38 39  1  1
 39 40  1  0
 40 41  1  0
 40 42  2  0
 38 43  1  0
 43 44  2  0
 44 45  1  0
 45 46  2  0
 46 47  1  0
 47 48  1  0
 48 49  1  1
 48 50  1  0
 50 51  1  0
 51 52  2  0
 51 53  1  0
 53 54  1  0
 54 55  1  1
 54  3  1  0
 29  6  1  0
 24 12  1  0
M  END
>  <ChEMBL_IDs>  (107) 
CHEMBL3251865

>  <target_organism>  (107) 
None

>  <target_molecule_pref_name>  (107) 
None

>  <# Known Targets>  (107) 
1.0

>  <Known Targets>  (107) 
CHEMBL612545

>  <smiles>  (107) 
CO[C@@H]1[C@@H](O[C@@H]2O[C@H](C)[C@@H](O[C@H]3C[C@@](C)(O)[C@@H](OC(C)=O)[C@H](C)O3)[C@H](N(C)C)[C@H]2O)[C@@H](CC=O)C[C@@H](C)[C@@H](OC(C)=O)/C=C/C=C/C[C@@H](C)OC(=O)C[C@H]1O

$$$$

     RDKit          2D

 53 55  0  0  0  0  0  0  0  0999 V2000
    5.6205   -1.2990    0.0000 C   0  0  0  0  0  0  0  0  0  0  0  0
    4.8705    0.0000    0.0000 C   0  0  0  0  0  0  0  0  0  0  0  0
    3.3705    0.0000    0.0000 C   0  0  0  0  0  0  0  0  0  0  0  0
    3.0367   -1.4624    0.0000 O   0  0  0  0  0  0  0  0  0  0  0  0
    2.1015   -2.6351    0.0000 C   0  0  0  0  0  0  0  0  0  0  0  0
    3.0367   -3.8079    0.0000 O   0  0  0  0  0  0  0  0  0  0  0  0
    0.7500   -3.2860    0.0000 C   0  0  0  0  0  0  0  0  0  0  0  0
    1.3600   -4.4903    0.0000 C   0  0  0  0  0  0  0  0  0  0  0  0
   -0.7500   -3.2860    0.0000 C   0  0  0  0  0  0  0  0  0  0  0  0
   -1.0838   -4.7484    0.0000 O   0  0  0  0  0  0  0  0  0  0  0  0
    0.0158   -5.7686    0.0000 C   0  0  0  0  0  0  0  0  0  0  0  0
   -0.3180   -7.2310    0.0000 C   0  0  0  0  0  0  0  0  0  0  0  0
    0.7816   -8.2513    0.0000 C   0  0  0  0  0  0  0  0  0  0  0  0
    1.4659   -9.5861    0.0000 C   0  0  0  0  0  0  0  0  0  0  0  0
   -0.4141   -9.1570    0.0000 O   0  0  0  0  0  0  0  0  0  0  0  0
   -0.2276  -10.6453    0.0000 C   0  0  0  0  0  0  0  0  0  0  0  0
    2.2150   -7.8091    0.0000 C   0  0  0  0  0  0  0  0  0  0  0  0
    3.3145   -8.8294    0.0000 O   0  0  0  0  0  0  0  0  0  0  0  0
    2.5487   -6.3467    0.0000 C   0  0  0  0  0  0  0  0  0  0  0  0
    3.9821   -5.9046    0.0000 C   0  0  0  0  0  0  0  0  0  0  0  0
    1.4492   -5.3265    0.0000 O   0  0  0  0  0  0  0  0  0  0  0  0
   -2.1015   -2.6351    0.0000 C   0  0  0  0  0  0  0  0  0  0  0  0
   -3.0367   -3.8079    0.0000 C   0  0  0  0  0  0  0  0  0  0  0  0
   -3.0367   -1.4624    0.0000 C   0  0  0  0  0  0  0  0  0  0  0  0
   -4.3881   -2.1132    0.0000 O   0  0  0  0  0  0  0  0  0  0  0  0
   -5.6275   -1.2682    0.0000 C   0  0  0  0  0  0  0  0  0  0  0  0
   -5.5154    0.2276    0.0000 O   0  0  0  0  0  0  0  0  0  0  0  0
   -6.7548    1.0725    0.0000 C   0  0  0  0  0  0  0  0  0  0  0  0
   -6.6427    2.5684    0.0000 C   0  0  0  0  0  0  0  0  0  0  0  0
   -8.1062    0.4217    0.0000 C   0  0  0  0  0  0  0  0  0  0  0  0
   -8.2183   -1.0741    0.0000 C   0  0  0  0  0  0  0  0  0  0  0  0
   -9.5698   -1.7249    0.0000 N   0  0  0  0  0  0  0  0  0  0  0  0
  -10.8091   -0.8799    0.0000 C   0  0  0  0  0  0  0  0  0  0  0  0
   -9.6819   -3.2207    0.0000 C   0  0  0  0  0  0  0  0  0  0  0  0
  -11.0333   -3.8715    0.0000 C   0  0  0  0  0  0  0  0  0  0  0  0
  -11.1454   -5.3673    0.0000 N   0  0  0  0  0  0  0  0  0  0  0  0
   -6.9790   -1.9191    0.0000 C   0  0  0  0  0  0  0  0  0  0  0  0
   -7.0910   -3.4149    0.0000 O   0  0  0  0  0  0  0  0  0  0  0  0
   -3.3705    0.0000    0.0000 C   0  0  0  0  0  0  0  0  0  0  0  0
   -4.6098   -0.8450    0.0000 C   0  0  0  0  0  0  0  0  0  0  0  0
   -4.6098    0.8450    0.0000 O   0  0  0  0  0  0  0  0  0  0  0  0
   -3.0367    1.4624    0.0000 C   0  0  0  0  0  0  0  0  0  0  0  0
   -2.1015    2.6351    0.0000 C   0  0  0  0  0  0  0  0  0  0  0  0
   -3.0367    3.8079    0.0000 C   0  0  0  0  0  0  0  0  0  0  0  0
   -0.7500    3.2860    0.0000 C   0  0  0  0  0  0  0  0  0  0  0  0
   -1.0838    4.7484    0.0000 O   0  0  0  0  0  0  0  0  0  0  0  0
    0.7500    3.2860    0.0000 C   0  0  0  0  0  0  0  0  0  0  0  0
    1.0838    4.7484    0.0000 C   0  0  0  0  0  0  0  0  0  0  0  0
    2.1015    2.6351    0.0000 C   0  0  0  0  0  0  0  0  0  0  0  0
    3.0367    3.8079    0.0000 O   0  0  0  0  0  0  0  0  0  0  0  0
    3.0367    1.4624    0.0000 C   0  0  0  0  0  0  0  0  0  0  0  0
    3.7867    2.7614    0.0000 C   0  0  0  0  0  0  0  0  0  0  0  0
    4.5199    1.2388    0.0000 O   0  0  0  0  0  0  0  0  0  0  0  0
  1  2  1  0
  3  2  1  1
  3  4  1  0
  4  5  1  0
  5  6  2  0
  5  7  1  0
  7  8  1  6
  7  9  1  0
  9 10  1  1
 11 10  1  1
 11 12  1  0
 12 13  1  0
 13 14  1  1
 13 15  1  0
 15 16  1  0
 13 17  1  0
 17 18  1  6
 17 19  1  0
 19 20  1  1
 19 21  1  0
  9 22  1  0
 22 23  1  6
 22 24  1  0
 24 25  1  1
 26 25  1  1
 26 27  1  0
 27 28  1  0
 28 29  1  1
 28 30  1  0
 30 31  1  0
 31 32  1  1
 32 33  1  0
 32 34  1  0
 34 35  1  0
 35 36  1  0
 31 37  1  0
 37 38  1  6
 24 39  1  0
 39 40  1  1
 39 41  1  0
 39 42  1  0
 42 43  1  0
 43 44  1  1
 43 45  1  0
 45 46  1  6
 45 47  1  0
 47 48  1  6
 47 49  1  0
 49 50  1  1
 49 51  1  0
 51 52  1  1
 51 53  1  0
 51  3  1  0
 21 11  1  0
 37 26  1  0
M  END
>  <ChEMBL_IDs>  (108) 
CHEMBL1256550

>  <target_organism>  (108) 
nan

>  <target_molecule_pref_name>  (108) 
None

>  <# Known Targets>  (108) 
1.0

>  <Known Targets>  (108) 
CHEMBL5306

>  <smiles>  (108) 
CC[C@H]1OC(=O)[C@H](C)[C@@H](O[C@@H]2C[C@@](C)(OC)[C@@H](O)[C@H](C)O2)[C@H](C)[C@@H](O[C@@H]2O[C@H](C)C[C@H](N(C)CCN)[C@H]2O)[C@](C)(O)C[C@@H](C)[C@H](O)[C@H](C)[C@@H](O)[C@]1(C)O

$$$$

     RDKit          2D

 53 55  0  0  0  0  0  0  0  0999 V2000
    5.6205   -1.2990    0.0000 C   0  0  0  0  0  0  0  0  0  0  0  0
    4.8705    0.0000    0.0000 C   0  0  0  0  0  0  0  0  0  0  0  0
    3.3705    0.0000    0.0000 C   0  0  0  0  0  0  0  0  0  0  0  0
    3.0367   -1.4624    0.0000 O   0  0  0  0  0  0  0  0  0  0  0  0
    2.1015   -2.6351    0.0000 C   0  0  0  0  0  0  0  0  0  0  0  0
    3.0367   -3.8079    0.0000 O   0  0  0  0  0  0  0  0  0  0  0  0
    0.7500   -3.2860    0.0000 C   0  0  0  0  0  0  0  0  0  0  0  0
    1.3600   -4.4903    0.0000 C   0  0  0  0  0  0  0  0  0  0  0  0
   -0.7500   -3.2860    0.0000 C   0  0  0  0  0  0  0  0  0  0  0  0
   -1.0838   -4.7484    0.0000 O   0  0  0  0  0  0  0  0  0  0  0  0
    0.0158   -5.7686    0.0000 C   0  0  0  0  0  0  0  0  0  0  0  0
   -0.3180   -7.2310    0.0000 C   0  0  0  0  0  0  0  0  0  0  0  0
    0.7816   -8.2513    0.0000 C   0  0  0  0  0  0  0  0  0  0  0  0
    1.4659   -9.5861    0.0000 C   0  0  0  0  0  0  0  0  0  0  0  0
   -0.4141   -9.1570    0.0000 O   0  0  0  0  0  0  0  0  0  0  0  0
   -0.2276  -10.6453    0.0000 C   0  0  0  0  0  0  0  0  0  0  0  0
    2.2150   -7.8091    0.0000 C   0  0  0  0  0  0  0  0  0  0  0  0
    3.3145   -8.8294    0.0000 O   0  0  0  0  0  0  0  0  0  0  0  0
    2.5487   -6.3467    0.0000 C   0  0  0  0  0  0  0  0  0  0  0  0
    3.9821   -5.9046    0.0000 C   0  0  0  0  0  0  0  0  0  0  0  0
    1.4492   -5.3265    0.0000 O   0  0  0  0  0  0  0  0  0  0  0  0
   -2.1015   -2.6351    0.0000 C   0  0  0  0  0  0  0  0  0  0  0  0
   -3.0367   -3.8079    0.0000 C   0  0  0  0  0  0  0  0  0  0  0  0
   -3.0367   -1.4624    0.0000 C   0  0  0  0  0  0  0  0  0  0  0  0
   -4.3881   -2.1132    0.0000 O   0  0  0  0  0  0  0  0  0  0  0  0
   -5.6275   -1.2682    0.0000 C   0  0  0  0  0  0  0  0  0  0  0  0
   -5.5154    0.2276    0.0000 O   0  0  0  0  0  0  0  0  0  0  0  0
   -6.7548    1.0725    0.0000 C   0  0  0  0  0  0  0  0  0  0  0  0
   -6.6427    2.5684    0.0000 C   0  0  0  0  0  0  0  0  0  0  0  0
   -8.1062    0.4217    0.0000 C   0  0  0  0  0  0  0  0  0  0  0  0
   -8.2183   -1.0741    0.0000 C   0  0  0  0  0  0  0  0  0  0  0  0
   -9.5698   -1.7249    0.0000 N   0  0  0  0  0  0  0  0  0  0  0  0
  -10.8091   -0.8799    0.0000 C   0  0  0  0  0  0  0  0  0  0  0  0
   -9.6819   -3.2207    0.0000 C   0  0  0  0  0  0  0  0  0  0  0  0
  -11.0333   -3.8715    0.0000 C   0  0  0  0  0  0  0  0  0  0  0  0
  -11.1454   -5.3673    0.0000 O   0  0  0  0  0  0  0  0  0  0  0  0
   -6.9790   -1.9191    0.0000 C   0  0  0  0  0  0  0  0  0  0  0  0
   -7.0910   -3.4149    0.0000 O   0  0  0  0  0  0  0  0  0  0  0  0
   -3.3705    0.0000    0.0000 C   0  0  0  0  0  0  0  0  0  0  0  0
   -4.6098   -0.8450    0.0000 C   0  0  0  0  0  0  0  0  0  0  0  0
   -4.6098    0.8450    0.0000 O   0  0  0  0  0  0  0  0  0  0  0  0
   -3.0367    1.4624    0.0000 C   0  0  0  0  0  0  0  0  0  0  0  0
   -2.1015    2.6351    0.0000 C   0  0  0  0  0  0  0  0  0  0  0  0
   -3.0367    3.8079    0.0000 C   0  0  0  0  0  0  0  0  0  0  0  0
   -0.7500    3.2860    0.0000 C   0  0  0  0  0  0  0  0  0  0  0  0
   -1.0838    4.7484    0.0000 O   0  0  0  0  0  0  0  0  0  0  0  0
    0.7500    3.2860    0.0000 C   0  0  0  0  0  0  0  0  0  0  0  0
    1.0838    4.7484    0.0000 C   0  0  0  0  0  0  0  0  0  0  0  0
    2.1015    2.6351    0.0000 C   0  0  0  0  0  0  0  0  0  0  0  0
    3.0367    3.8079    0.0000 O   0  0  0  0  0  0  0  0  0  0  0  0
    3.0367    1.4624    0.0000 C   0  0  0  0  0  0  0  0  0  0  0  0
    3.7867    2.7614    0.0000 C   0  0  0  0  0  0  0  0  0  0  0  0
    4.5199    1.2388    0.0000 O   0  0  0  0  0  0  0  0  0  0  0  0
  1  2  1  0
  3  2  1  1
  3  4  1  0
  4  5  1  0
  5  6  2  0
  5  7  1  0
  7  8  1  6
  7  9  1  0
  9 10  1  1
 11 10  1  1
 11 12  1  0
 12 13  1  0
 13 14  1  1
 13 15  1  0
 15 16  1  0
 13 17  1  0
 17 18  1  6
 17 19  1  0
 19 20  1  1
 19 21  1  0
  9 22  1  0
 22 23  1  6
 22 24  1  0
 24 25  1  1
 26 25  1  1
 26 27  1  0
 27 28  1  0
 28 29  1  1
 28 30  1  0
 30 31  1  0
 31 32  1  1
 32 33  1  0
 32 34  1  0
 34 35  1  0
 35 36  1  0
 31 37  1  0
 37 38  1  6
 24 39  1  0
 39 40  1  1
 39 41  1  0
 39 42  1  0
 42 43  1  0
 43 44  1  1
 43 45  1  0
 45 46  1  6
 45 47  1  0
 47 48  1  6
 47 49  1  0
 49 50  1  1
 49 51  1  0
 51 52  1  1
 51 53  1  0
 51  3  1  0
 21 11  1  0
 37 26  1  0
M  END
>  <ChEMBL_IDs>  (109) 
CHEMBL1256542

>  <target_organism>  (109) 
nan

>  <target_molecule_pref_name>  (109) 
None

>  <# Known Targets>  (109) 
1.0

>  <Known Targets>  (109) 
CHEMBL5306

>  <smiles>  (109) 
CC[C@H]1OC(=O)[C@H](C)[C@@H](O[C@@H]2C[C@@](C)(OC)[C@@H](O)[C@H](C)O2)[C@H](C)[C@@H](O[C@@H]2O[C@H](C)C[C@H](N(C)CCO)[C@H]2O)[C@](C)(O)C[C@@H](C)[C@H](O)[C@H](C)[C@@H](O)[C@]1(C)O

$$$$

     RDKit          2D

 53 55  0  0  0  0  0  0  0  0999 V2000
    5.6205   -1.2990    0.0000 C   0  0  0  0  0  0  0  0  0  0  0  0
    4.8705    0.0000    0.0000 C   0  0  0  0  0  0  0  0  0  0  0  0
    3.3705    0.0000    0.0000 C   0  0  0  0  0  0  0  0  0  0  0  0
    3.0367   -1.4624    0.0000 O   0  0  0  0  0  0  0  0  0  0  0  0
    2.1015   -2.6351    0.0000 C   0  0  0  0  0  0  0  0  0  0  0  0
    3.0367   -3.8079    0.0000 O   0  0  0  0  0  0  0  0  0  0  0  0
    0.7500   -3.2860    0.0000 C   0  0  0  0  0  0  0  0  0  0  0  0
    1.3600   -4.4903    0.0000 C   0  0  0  0  0  0  0  0  0  0  0  0
   -0.7500   -3.2860    0.0000 C   0  0  0  0  0  0  0  0  0  0  0  0
   -1.0838   -4.7484    0.0000 O   0  0  0  0  0  0  0  0  0  0  0  0
    0.0158   -5.7686    0.0000 C   0  0  0  0  0  0  0  0  0  0  0  0
   -0.3180   -7.2310    0.0000 C   0  0  0  0  0  0  0  0  0  0  0  0
    0.7816   -8.2513    0.0000 C   0  0  0  0  0  0  0  0  0  0  0  0
    1.4659   -9.5861    0.0000 C   0  0  0  0  0  0  0  0  0  0  0  0
   -0.4141   -9.1570    0.0000 O   0  0  0  0  0  0  0  0  0  0  0  0
   -0.2276  -10.6453    0.0000 C   0  0  0  0  0  0  0  0  0  0  0  0
    2.2150   -7.8091    0.0000 C   0  0  0  0  0  0  0  0  0  0  0  0
    3.3145   -8.8294    0.0000 O   0  0  0  0  0  0  0  0  0  0  0  0
    2.5487   -6.3467    0.0000 C   0  0  0  0  0  0  0  0  0  0  0  0
    3.9821   -5.9046    0.0000 C   0  0  0  0  0  0  0  0  0  0  0  0
    1.4492   -5.3265    0.0000 O   0  0  0  0  0  0  0  0  0  0  0  0
   -2.1015   -2.6351    0.0000 C   0  0  0  0  0  0  0  0  0  0  0  0
   -3.0367   -3.8079    0.0000 C   0  0  0  0  0  0  0  0  0  0  0  0
   -3.0367   -1.4624    0.0000 C   0  0  0  0  0  0  0  0  0  0  0  0
   -4.3881   -2.1132    0.0000 O   0  0  0  0  0  0  0  0  0  0  0  0
   -5.6275   -1.2682    0.0000 C   0  0  0  0  0  0  0  0  0  0  0  0
   -5.5154    0.2276    0.0000 O   0  0  0  0  0  0  0  0  0  0  0  0
   -6.7548    1.0725    0.0000 C   0  0  0  0  0  0  0  0  0  0  0  0
   -6.6427    2.5684    0.0000 C   0  0  0  0  0  0  0  0  0  0  0  0
   -8.1062    0.4217    0.0000 C   0  0  0  0  0  0  0  0  0  0  0  0
   -8.2183   -1.0741    0.0000 C   0  0  0  0  0  0  0  0  0  0  0  0
   -9.5698   -1.7249    0.0000 N   0  0  0  0  0  0  0  0  0  0  0  0
  -10.8091   -0.8799    0.0000 C   0  0  0  0  0  0  0  0  0  0  0  0
   -9.6819   -3.2207    0.0000 C   0  0  0  0  0  0  0  0  0  0  0  0
  -11.0333   -3.8715    0.0000 C   0  0  0  0  0  0  0  0  0  0  0  0
  -11.1454   -5.3673    0.0000 O   0  0  0  0  0  0  0  0  0  0  0  0
   -6.9790   -1.9191    0.0000 C   0  0  0  0  0  0  0  0  0  0  0  0
   -7.0910   -3.4149    0.0000 O   0  0  0  0  0  0  0  0  0  0  0  0
   -3.3705    0.0000    0.0000 C   0  0  0  0  0  0  0  0  0  0  0  0
   -4.6098   -0.8450    0.0000 C   0  0  0  0  0  0  0  0  0  0  0  0
   -4.6098    0.8450    0.0000 O   0  0  0  0  0  0  0  0  0  0  0  0
   -3.0367    1.4624    0.0000 C   0  0  0  0  0  0  0  0  0  0  0  0
   -2.1015    2.6351    0.0000 C   0  0  0  0  0  0  0  0  0  0  0  0
   -3.0367    3.8079    0.0000 C   0  0  0  0  0  0  0  0  0  0  0  0
   -0.7500    3.2860    0.0000 C   0  0  0  0  0  0  0  0  0  0  0  0
   -1.0838    4.7484    0.0000 O   0  0  0  0  0  0  0  0  0  0  0  0
    0.7500    3.2860    0.0000 C   0  0  0  0  0  0  0  0  0  0  0  0
    1.0838    4.7484    0.0000 C   0  0  0  0  0  0  0  0  0  0  0  0
    2.1015    2.6351    0.0000 C   0  0  0  0  0  0  0  0  0  0  0  0
    3.0367    3.8079    0.0000 O   0  0  0  0  0  0  0  0  0  0  0  0
    3.0367    1.4624    0.0000 C   0  0  0  0  0  0  0  0  0  0  0  0
    3.7867    2.7614    0.0000 C   0  0  0  0  0  0  0  0  0  0  0  0
    4.5199    1.2388    0.0000 O   0  0  0  0  0  0  0  0  0  0  0  0
  1  2  1  0
  3  2  1  1
  3  4  1  0
  4  5  1  0
  5  6  2  0
  5  7  1  0
  7  8  1  6
  7  9  1  0
  9 10  1  1
 11 10  1  6
 11 12  1  0
 12 13  1  0
 13 14  1  1
 13 15  1  0
 15 16  1  0
 13 17  1  0
 17 18  1  6
 17 19  1  0
 19 20  1  1
 19 21  1  0
  9 22  1  0
 22 23  1  6
 22 24  1  0
 24 25  1  1
 26 25  1  1
 26 27  1  0
 27 28  1  0
 28 29  1  1
 28 30  1  0
 30 31  1  0
 31 32  1  1
 32 33  1  0
 32 34  1  0
 34 35  1  0
 35 36  1  0
 31 37  1  0
 37 38  1  6
 24 39  1  0
 39 40  1  1
 39 41  1  0
 39 42  1  0
 42 43  1  0
 43 44  1  1
 43 45  1  0
 45 46  1  6
 45 47  1  0
 47 48  1  6
 47 49  1  0
 49 50  1  1
 49 51  1  0
 51 52  1  1
 51 53  1  0
 51  3  1  0
 21 11  1  0
 37 26  1  0
M  END
>  <ChEMBL_IDs>  (110) 
CHEMBL1778055

>  <target_organism>  (110) 
Homo sapiens,None,Escherichia coli K-12

>  <target_molecule_pref_name>  (110) 
None

>  <# Known Targets>  (110) 
1.0

>  <Known Targets>  (110) 
CHEMBL5306

>  <smiles>  (110) 
CC[C@H]1OC(=O)[C@H](C)[C@@H](O[C@H]2C[C@@](C)(OC)[C@@H](O)[C@H](C)O2)[C@H](C)[C@@H](O[C@@H]2O[C@H](C)C[C@H](N(C)CCO)[C@H]2O)[C@](C)(O)C[C@@H](C)[C@H](O)[C@H](C)[C@@H](O)[C@]1(C)O

$$$$

     RDKit          2D

 52 54  0  0  0  0  0  0  0  0999 V2000
    5.6205   -1.2990    0.0000 C   0  0  0  0  0  0  0  0  0  0  0  0
    4.8705    0.0000    0.0000 C   0  0  0  0  0  0  0  0  0  0  0  0
    3.3705    0.0000    0.0000 C   0  0  0  0  0  0  0  0  0  0  0  0
    3.0367   -1.4624    0.0000 O   0  0  0  0  0  0  0  0  0  0  0  0
    2.1015   -2.6351    0.0000 C   0  0  0  0  0  0  0  0  0  0  0  0
    3.0367   -3.8079    0.0000 O   0  0  0  0  0  0  0  0  0  0  0  0
    0.7500   -3.2860    0.0000 C   0  0  0  0  0  0  0  0  0  0  0  0
    1.3600   -4.4903    0.0000 C   0  0  0  0  0  0  0  0  0  0  0  0
   -0.7500   -3.2860    0.0000 C   0  0  0  0  0  0  0  0  0  0  0  0
   -1.0838   -4.7484    0.0000 O   0  0  0  0  0  0  0  0  0  0  0  0
    0.0158   -5.7686    0.0000 C   0  0  0  0  0  0  0  0  0  0  0  0
   -0.3180   -7.2310    0.0000 C   0  0  0  0  0  0  0  0  0  0  0  0
    0.7816   -8.2513    0.0000 C   0  0  0  0  0  0  0  0  0  0  0  0
    1.4659   -9.5861    0.0000 C   0  0  0  0  0  0  0  0  0  0  0  0
   -0.4141   -9.1570    0.0000 O   0  0  0  0  0  0  0  0  0  0  0  0
   -0.2276  -10.6453    0.0000 C   0  0  0  0  0  0  0  0  0  0  0  0
    2.2150   -7.8091    0.0000 C   0  0  0  0  0  0  0  0  0  0  0  0
    2.5487   -6.3467    0.0000 C   0  0  0  0  0  0  0  0  0  0  0  0
    3.9821   -5.9046    0.0000 C   0  0  0  0  0  0  0  0  0  0  0  0
    1.4492   -5.3265    0.0000 O   0  0  0  0  0  0  0  0  0  0  0  0
   -2.1015   -2.6351    0.0000 C   0  0  0  0  0  0  0  0  0  0  0  0
   -3.0367   -3.8079    0.0000 C   0  0  0  0  0  0  0  0  0  0  0  0
   -3.0367   -1.4624    0.0000 C   0  0  0  0  0  0  0  0  0  0  0  0
   -4.3881   -2.1132    0.0000 O   0  0  0  0  0  0  0  0  0  0  0  0
   -5.6275   -1.2682    0.0000 C   0  0  0  0  0  0  0  0  0  0  0  0
   -5.5154    0.2276    0.0000 O   0  0  0  0  0  0  0  0  0  0  0  0
   -6.7548    1.0725    0.0000 C   0  0  0  0  0  0  0  0  0  0  0  0
   -6.6427    2.5684    0.0000 C   0  0  0  0  0  0  0  0  0  0  0  0
   -8.1062    0.4217    0.0000 C   0  0  0  0  0  0  0  0  0  0  0  0
   -8.2183   -1.0741    0.0000 C   0  0  0  0  0  0  0  0  0  0  0  0
   -9.5698   -1.7249    0.0000 N   0  0  0  0  0  0  0  0  0  0  0  0
  -10.8091   -0.8799    0.0000 C   0  0  0  0  0  0  0  0  0  0  0  0
   -9.6819   -3.2207    0.0000 C   0  0  0  0  0  0  0  0  0  0  0  0
  -11.0333   -3.8715    0.0000 C   0  0  0  0  0  0  0  0  0  0  0  0
  -11.1454   -5.3673    0.0000 O   0  0  0  0  0  0  0  0  0  0  0  0
   -6.9790   -1.9191    0.0000 C   0  0  0  0  0  0  0  0  0  0  0  0
   -7.0910   -3.4149    0.0000 O   0  0  0  0  0  0  0  0  0  0  0  0
   -3.3705    0.0000    0.0000 C   0  0  0  0  0  0  0  0  0  0  0  0
   -4.6098   -0.8450    0.0000 C   0  0  0  0  0  0  0  0  0  0  0  0
   -4.6098    0.8450    0.0000 O   0  0  0  0  0  0  0  0  0  0  0  0
   -3.0367    1.4624    0.0000 C   0  0  0  0  0  0  0  0  0  0  0  0
   -2.1015    2.6351    0.0000 C   0  0  0  0  0  0  0  0  0  0  0  0
   -3.0367    3.8079    0.0000 C   0  0  0  0  0  0  0  0  0  0  0  0
   -0.7500    3.2860    0.0000 C   0  0  0  0  0  0  0  0  0  0  0  0
   -1.0838    4.7484    0.0000 O   0  0  0  0  0  0  0  0  0  0  0  0
    0.7500    3.2860    0.0000 C   0  0  0  0  0  0  0  0  0  0  0  0
    1.0838    4.7484    0.0000 C   0  0  0  0  0  0  0  0  0  0  0  0
    2.1015    2.6351    0.0000 C   0  0  0  0  0  0  0  0  0  0  0  0
    3.0367    3.8079    0.0000 O   0  0  0  0  0  0  0  0  0  0  0  0
    3.0367    1.4624    0.0000 C   0  0  0  0  0  0  0  0  0  0  0  0
    3.7867    2.7614    0.0000 C   0  0  0  0  0  0  0  0  0  0  0  0
    4.5199    1.2388    0.0000 O   0  0  0  0  0  0  0  0  0  0  0  0
  1  2  1  0
  3  2  1  1
  3  4  1  0
  4  5  1  0
  5  6  2  0
  5  7  1  0
  7  8  1  6
  7  9  1  0
  9 10  1  1
 11 10  1  6
 11 12  1  0
 12 13  1  0
 13 14  1  1
 13 15  1  0
 15 16  1  0
 13 17  1  0
 17 18  1  0
 18 19  1  1
 18 20  1  0
  9 21  1  0
 21 22  1  6
 21 23  1  0
 23 24  1  1
 25 24  1  1
 25 26  1  0
 26 27  1  0
 27 28  1  1
 27 29  1  0
 29 30  1  0
 30 31  1  1
 31 32  1  0
 31 33  1  0
 33 34  1  0
 34 35  1  0
 30 36  1  0
 36 37  1  6
 23 38  1  0
 38 39  1  1
 38 40  1  0
 38 41  1  0
 41 42  1  0
 42 43  1  1
 42 44  1  0
 44 45  1  6
 44 46  1  0
 46 47  1  6
 46 48  1  0
 48 49  1  1
 48 50  1  0
 50 51  1  1
 50 52  1  0
 50  3  1  0
 20 11  1  0
 36 25  1  0
M  END
>  <ChEMBL_IDs>  (111) 
CHEMBL1778047

>  <target_organism>  (111) 
Homo sapiens,None,Escherichia coli K-12

>  <target_molecule_pref_name>  (111) 
None

>  <# Known Targets>  (111) 
1.0

>  <Known Targets>  (111) 
CHEMBL5306

>  <smiles>  (111) 
CC[C@H]1OC(=O)[C@H](C)[C@@H](O[C@H]2C[C@@](C)(OC)C[C@H](C)O2)[C@H](C)[C@@H](O[C@@H]2O[C@H](C)C[C@H](N(C)CCO)[C@H]2O)[C@](C)(O)C[C@@H](C)[C@H](O)[C@H](C)[C@@H](O)[C@]1(C)O

$$$$

     RDKit          2D

 53 55  0  0  0  0  0  0  0  0999 V2000
    5.6205   -1.2990    0.0000 C   0  0  0  0  0  0  0  0  0  0  0  0
    4.8705    0.0000    0.0000 C   0  0  0  0  0  0  0  0  0  0  0  0
    3.3705    0.0000    0.0000 C   0  0  0  0  0  0  0  0  0  0  0  0
    3.0367   -1.4624    0.0000 O   0  0  0  0  0  0  0  0  0  0  0  0
    2.1015   -2.6351    0.0000 C   0  0  0  0  0  0  0  0  0  0  0  0
    3.0367   -3.8079    0.0000 O   0  0  0  0  0  0  0  0  0  0  0  0
    0.7500   -3.2860    0.0000 C   0  0  0  0  0  0  0  0  0  0  0  0
    1.3600   -4.4903    0.0000 C   0  0  0  0  0  0  0  0  0  0  0  0
   -0.7500   -3.2860    0.0000 C   0  0  0  0  0  0  0  0  0  0  0  0
   -1.0838   -4.7484    0.0000 O   0  0  0  0  0  0  0  0  0  0  0  0
    0.0158   -5.7686    0.0000 C   0  0  0  0  0  0  0  0  0  0  0  0
   -0.3180   -7.2310    0.0000 C   0  0  0  0  0  0  0  0  0  0  0  0
    0.7816   -8.2513    0.0000 C   0  0  0  0  0  0  0  0  0  0  0  0
    1.4659   -9.5861    0.0000 C   0  0  0  0  0  0  0  0  0  0  0  0
   -0.4141   -9.1570    0.0000 O   0  0  0  0  0  0  0  0  0  0  0  0
   -0.2276  -10.6453    0.0000 C   0  0  0  0  0  0  0  0  0  0  0  0
    2.2150   -7.8091    0.0000 C   0  0  0  0  0  0  0  0  0  0  0  0
    3.3145   -8.8294    0.0000 O   0  0  0  0  0  0  0  0  0  0  0  0
    2.5487   -6.3467    0.0000 C   0  0  0  0  0  0  0  0  0  0  0  0
    3.9821   -5.9046    0.0000 C   0  0  0  0  0  0  0  0  0  0  0  0
    1.4492   -5.3265    0.0000 O   0  0  0  0  0  0  0  0  0  0  0  0
   -2.1015   -2.6351    0.0000 C   0  0  0  0  0  0  0  0  0  0  0  0
   -3.0367   -3.8079    0.0000 C   0  0  0  0  0  0  0  0  0  0  0  0
   -3.0367   -1.4624    0.0000 C   0  0  0  0  0  0  0  0  0  0  0  0
   -4.3881   -2.1132    0.0000 O   0  0  0  0  0  0  0  0  0  0  0  0
   -5.6275   -1.2682    0.0000 C   0  0  0  0  0  0  0  0  0  0  0  0
   -5.5154    0.2276    0.0000 O   0  0  0  0  0  0  0  0  0  0  0  0
   -6.7548    1.0725    0.0000 C   0  0  0  0  0  0  0  0  0  0  0  0
   -6.6427    2.5684    0.0000 C   0  0  0  0  0  0  0  0  0  0  0  0
   -8.1062    0.4217    0.0000 C   0  0  0  0  0  0  0  0  0  0  0  0
   -8.2183   -1.0741    0.0000 C   0  0  0  0  0  0  0  0  0  0  0  0
   -9.5698   -1.7249    0.0000 N   0  0  0  0  0  0  0  0  0  0  0  0
  -10.8091   -0.8799    0.0000 C   0  0  0  0  0  0  0  0  0  0  0  0
   -9.6819   -3.2207    0.0000 C   0  0  0  0  0  0  0  0  0  0  0  0
   -6.9790   -1.9191    0.0000 C   0  0  0  0  0  0  0  0  0  0  0  0
   -7.0910   -3.4149    0.0000 O   0  0  0  0  0  0  0  0  0  0  0  0
   -3.3705    0.0000    0.0000 C   0  0  0  0  0  0  0  0  0  0  0  0
   -4.6098   -0.8450    0.0000 C   0  0  0  0  0  0  0  0  0  0  0  0
   -4.6098    0.8450    0.0000 O   0  0  0  0  0  0  0  0  0  0  0  0
   -3.0367    1.4624    0.0000 C   0  0  0  0  0  0  0  0  0  0  0  0
   -2.1015    2.6351    0.0000 C   0  0  0  0  0  0  0  0  0  0  0  0
   -3.0367    3.8079    0.0000 C   0  0  0  0  0  0  0  0  0  0  0  0
   -0.7500    3.2860    0.0000 C   0  0  0  0  0  0  0  0  0  0  0  0
   -1.0838    4.7484    0.0000 N   0  0  0  0  0  0  0  0  0  0  0  0
   -2.5171    5.1905    0.0000 O   0  0  0  0  0  0  0  0  0  0  0  0
   -2.8509    6.6529    0.0000 C   0  0  0  0  0  0  0  0  0  0  0  0
    0.7500    3.2860    0.0000 C   0  0  0  0  0  0  0  0  0  0  0  0
    1.0838    4.7484    0.0000 C   0  0  0  0  0  0  0  0  0  0  0  0
    2.1015    2.6351    0.0000 C   0  0  0  0  0  0  0  0  0  0  0  0
    3.0367    3.8079    0.0000 O   0  0  0  0  0  0  0  0  0  0  0  0
    3.0367    1.4624    0.0000 C   0  0  0  0  0  0  0  0  0  0  0  0
    3.7867    2.7614    0.0000 C   0  0  0  0  0  0  0  0  0  0  0  0
    4.5199    1.2388    0.0000 O   0  0  0  0  0  0  0  0  0  0  0  0
  1  2  1  0
  3  2  1  1
  3  4  1  0
  4  5  1  0
  5  6  2  0
  5  7  1  0
  7  8  1  6
  7  9  1  0
  9 10  1  1
 11 10  1  6
 11 12  1  0
 12 13  1  0
 13 14  1  1
 13 15  1  0
 15 16  1  0
 13 17  1  0
 17 18  1  6
 17 19  1  0
 19 20  1  1
 19 21  1  0
  9 22  1  0
 22 23  1  6
 22 24  1  0
 24 25  1  1
 26 25  1  1
 26 27  1  0
 27 28  1  0
 28 29  1  1
 28 30  1  0
 30 31  1  0
 31 32  1  1
 32 33  1  0
 32 34  1  0
 31 35  1  0
 35 36  1  6
 24 37  1  0
 37 38  1  1
 37 39  1  0
 37 40  1  0
 40 41  1  0
 41 42  1  1
 41 43  1  0
 43 44  2  0
 44 45  1  0
 45 46  1  0
 43 47  1  0
 47 48  1  6
 47 49  1  0
 49 50  1  1
 49 51  1  0
 51 52  1  1
 51 53  1  0
 51  3  1  0
 21 11  1  0
 35 26  1  0
M  END
>  <ChEMBL_IDs>  (112) 
CHEMBL1774286

>  <target_organism>  (112) 
Homo sapiens,None,Escherichia coli K-12

>  <target_molecule_pref_name>  (112) 
None

>  <# Known Targets>  (112) 
1.0

>  <Known Targets>  (112) 
CHEMBL612888

>  <smiles>  (112) 
CC[C@H]1OC(=O)[C@H](C)[C@@H](O[C@H]2C[C@@](C)(OC)[C@@H](O)[C@H](C)O2)[C@H](C)[C@@H](O[C@@H]2O[C@H](C)C[C@H](N(C)C)[C@H]2O)[C@](C)(O)C[C@@H](C)/C(=N\OC)[C@H](C)[C@@H](O)[C@]1(C)O

$$$$

     RDKit          2D

 53 55  0  0  0  0  0  0  0  0999 V2000
    5.8573   -1.2990    0.0000 C   0  0  0  0  0  0  0  0  0  0  0  0
    5.1073    0.0000    0.0000 C   0  0  0  0  0  0  0  0  0  0  0  0
    3.6073    0.0000    0.0000 C   0  0  0  0  0  0  0  0  0  0  0  0
    3.2954    1.4672    0.0000 O   0  0  0  0  0  0  0  0  0  0  0  0
    2.4138    2.6807    0.0000 C   0  0  0  0  0  0  0  0  0  0  0  0
    3.4175    3.7955    0.0000 O   0  0  0  0  0  0  0  0  0  0  0  0
    1.1147    3.4307    0.0000 C   0  0  0  0  0  0  0  0  0  0  0  0
    1.8302    4.5756    0.0000 C   0  0  0  0  0  0  0  0  0  0  0  0
   -0.3771    3.5875    0.0000 C   0  0  0  0  0  0  0  0  0  0  0  0
   -0.5339    5.0793    0.0000 O   0  0  0  0  0  0  0  0  0  0  0  0
    0.6797    5.9610    0.0000 C   0  0  0  0  0  0  0  0  0  0  0  0
    0.5229    7.4528    0.0000 C   0  0  0  0  0  0  0  0  0  0  0  0
    1.7364    8.3345    0.0000 C   0  0  0  0  0  0  0  0  0  0  0  0
    2.5752    9.5780    0.0000 C   0  0  0  0  0  0  0  0  0  0  0  0
    0.6574    9.3764    0.0000 O   0  0  0  0  0  0  0  0  0  0  0  0
    1.0203   10.8319    0.0000 C   0  0  0  0  0  0  0  0  0  0  0  0
    3.1067    7.7244    0.0000 C   0  0  0  0  0  0  0  0  0  0  0  0
    4.3202    8.6060    0.0000 O   0  0  0  0  0  0  0  0  0  0  0  0
    3.2635    6.2326    0.0000 C   0  0  0  0  0  0  0  0  0  0  0  0
    4.6338    5.6225    0.0000 C   0  0  0  0  0  0  0  0  0  0  0  0
    2.0500    5.3509    0.0000 O   0  0  0  0  0  0  0  0  0  0  0  0
   -1.8037    3.1240    0.0000 C   0  0  0  0  0  0  0  0  0  0  0  0
   -2.5537    4.4231    0.0000 C   0  0  0  0  0  0  0  0  0  0  0  0
   -2.9184    2.1203    0.0000 C   0  0  0  0  0  0  0  0  0  0  0  0
   -4.1319    3.0020    0.0000 O   0  0  0  0  0  0  0  0  0  0  0  0
   -5.5022    2.3919    0.0000 C   0  0  0  0  0  0  0  0  0  0  0  0
   -6.7157    3.2736    0.0000 O   0  0  0  0  0  0  0  0  0  0  0  0
   -8.0861    2.6635    0.0000 C   0  0  0  0  0  0  0  0  0  0  0  0
   -9.2996    3.5451    0.0000 C   0  0  0  0  0  0  0  0  0  0  0  0
   -8.2428    1.1717    0.0000 C   0  0  0  0  0  0  0  0  0  0  0  0
   -7.0293    0.2900    0.0000 C   0  0  0  0  0  0  0  0  0  0  0  0
   -7.1861   -1.2018    0.0000 N   0  0  0  0  0  0  0  0  0  0  0  0
   -8.5564   -1.8119    0.0000 C   0  0  0  0  0  0  0  0  0  0  0  0
   -5.9726   -2.0835    0.0000 C   0  0  0  0  0  0  0  0  0  0  0  0
   -5.6590    0.9001    0.0000 C   0  0  0  0  0  0  0  0  0  0  0  0
   -5.0760    0.3564    0.0000 O   0  0  0  0  0  0  0  0  0  0  0  0
   -3.5285    0.7500    0.0000 C   0  0  0  0  0  0  0  0  0  0  0  0
   -4.2257    0.3635    0.0000 C   0  0  0  0  0  0  0  0  0  0  0  0
   -4.5705    1.8290    0.0000 O   0  0  0  0  0  0  0  0  0  0  0  0
   -5.8948    1.1247    0.0000 C   0  0  0  0  0  0  0  0  0  0  0  0
   -3.5285   -0.7500    0.0000 C   0  0  0  0  0  0  0  0  0  0  0  0
   -2.9184   -2.1203    0.0000 C   0  0  0  0  0  0  0  0  0  0  0  0
   -4.1319   -3.0020    0.0000 C   0  0  0  0  0  0  0  0  0  0  0  0
   -1.8037   -3.1240    0.0000 C   0  0  0  0  0  0  0  0  0  0  0  0
   -2.5537   -4.4231    0.0000 O   0  0  0  0  0  0  0  0  0  0  0  0
   -0.3771   -3.5875    0.0000 N   0  0  0  0  0  0  0  0  0  0  0  0
    1.1147   -3.4307    0.0000 C   0  0  0  0  0  0  0  0  0  0  0  0
    1.5782   -4.8573    0.0000 C   0  0  0  0  0  0  0  0  0  0  0  0
    2.4138   -2.6807    0.0000 C   0  0  0  0  0  0  0  0  0  0  0  0
    3.4175   -3.7955    0.0000 O   0  0  0  0  0  0  0  0  0  0  0  0
    3.2954   -1.4672    0.0000 C   0  0  0  0  0  0  0  0  0  0  0  0
    4.7726   -1.2067    0.0000 C   0  0  0  0  0  0  0  0  0  0  0  0
    4.0903   -2.7393    0.0000 O   0  0  0  0  0  0  0  0  0  0  0  0
  1  2  1  0
  3  2  1  6
  3  4  1  0
  4  5  1  0
  5  6  2  0
  5  7  1  0
  7  8  1  1
  7  9  1  0
  9 10  1  6
 11 10  1  1
 11 12  1  0
 12 13  1  0
 13 14  1  6
 13 15  1  0
 15 16  1  0
 13 17  1  0
 17 18  1  1
 17 19  1  0
 19 20  1  6
 19 21  1  0
  9 22  1  0
 22 23  1  1
 22 24  1  0
 24 25  1  6
 26 25  1  1
 26 27  1  0
 27 28  1  0
 28 29  1  1
 28 30  1  0
 30 31  1  0
 31 32  1  1
 32 33  1  0
 32 34  1  0
 31 35  1  0
 35 36  1  6
 24 37  1  0
 37 38  1  6
 37 39  1  0
 39 40  1  0
 37 41  1  0
 41 42  1  0
 42 43  1  6
 42 44  1  0
 44 45  2  0
 44 46  1  0
 46 47  1  0
 47 48  1  1
 47 49  1  0
 49 50  1  6
 49 51  1  0
 51 52  1  6
 51 53  1  0
 51  3  1  0
 21 11  1  0
 35 26  1  0
M  END
>  <ChEMBL_IDs>  (113) 
CHEMBL557931

>  <target_organism>  (113) 
Rattus norvegicus

>  <target_molecule_pref_name>  (113) 
None

>  <# Known Targets>  (113) 
1.0

>  <Known Targets>  (113) 
CHEMBL612545

>  <smiles>  (113) 
CC[C@H]1OC(=O)[C@H](C)[C@@H](O[C@H]2C[C@@](C)(OC)[C@@H](O)[C@H](C)O2)[C@H](C)[C@@H](O[C@@H]2O[C@H](C)C[C@H](N(C)C)[C@H]2O)[C@](C)(OC)C[C@@H](C)C(=O)N[C@H](C)[C@@H](O)[C@]1(C)O

$$$$

     RDKit          2D

 53 55  0  0  0  0  0  0  0  0999 V2000
    5.8573   -1.2990    0.0000 C   0  0  0  0  0  0  0  0  0  0  0  0
    5.1073    0.0000    0.0000 C   0  0  0  0  0  0  0  0  0  0  0  0
    3.6073    0.0000    0.0000 C   0  0  0  0  0  0  0  0  0  0  0  0
    3.2954    1.4672    0.0000 O   0  0  0  0  0  0  0  0  0  0  0  0
    2.4138    2.6807    0.0000 C   0  0  0  0  0  0  0  0  0  0  0  0
    3.4175    3.7955    0.0000 O   0  0  0  0  0  0  0  0  0  0  0  0
    1.1147    3.4307    0.0000 C   0  0  0  0  0  0  0  0  0  0  0  0
    1.8302    4.5756    0.0000 C   0  0  0  0  0  0  0  0  0  0  0  0
   -0.3771    3.5875    0.0000 C   0  0  0  0  0  0  0  0  0  0  0  0
   -0.5339    5.0793    0.0000 O   0  0  0  0  0  0  0  0  0  0  0  0
    0.6797    5.9610    0.0000 C   0  0  0  0  0  0  0  0  0  0  0  0
    0.5229    7.4528    0.0000 C   0  0  0  0  0  0  0  0  0  0  0  0
    1.7364    8.3345    0.0000 C   0  0  0  0  0  0  0  0  0  0  0  0
    2.5752    9.5780    0.0000 C   0  0  0  0  0  0  0  0  0  0  0  0
    0.6574    9.3764    0.0000 O   0  0  0  0  0  0  0  0  0  0  0  0
    1.0203   10.8319    0.0000 C   0  0  0  0  0  0  0  0  0  0  0  0
    3.1067    7.7244    0.0000 C   0  0  0  0  0  0  0  0  0  0  0  0
    4.3202    8.6060    0.0000 O   0  0  0  0  0  0  0  0  0  0  0  0
    3.2635    6.2326    0.0000 C   0  0  0  0  0  0  0  0  0  0  0  0
    4.6338    5.6225    0.0000 C   0  0  0  0  0  0  0  0  0  0  0  0
    2.0500    5.3509    0.0000 O   0  0  0  0  0  0  0  0  0  0  0  0
   -1.8037    3.1240    0.0000 C   0  0  0  0  0  0  0  0  0  0  0  0
   -2.5537    4.4231    0.0000 C   0  0  0  0  0  0  0  0  0  0  0  0
   -2.9184    2.1203    0.0000 C   0  0  0  0  0  0  0  0  0  0  0  0
   -4.1319    3.0020    0.0000 O   0  0  0  0  0  0  0  0  0  0  0  0
   -5.5022    2.3919    0.0000 C   0  0  0  0  0  0  0  0  0  0  0  0
   -6.7157    3.2736    0.0000 O   0  0  0  0  0  0  0  0  0  0  0  0
   -8.0861    2.6635    0.0000 C   0  0  0  0  0  0  0  0  0  0  0  0
   -9.2996    3.5451    0.0000 C   0  0  0  0  0  0  0  0  0  0  0  0
   -8.2428    1.1717    0.0000 C   0  0  0  0  0  0  0  0  0  0  0  0
   -7.0293    0.2900    0.0000 C   0  0  0  0  0  0  0  0  0  0  0  0
   -7.1861   -1.2018    0.0000 N   0  0  0  0  0  0  0  0  0  0  0  0
   -8.5564   -1.8119    0.0000 C   0  0  0  0  0  0  0  0  0  0  0  0
   -5.9726   -2.0835    0.0000 C   0  0  0  0  0  0  0  0  0  0  0  0
   -5.6590    0.9001    0.0000 C   0  0  0  0  0  0  0  0  0  0  0  0
   -5.0760    0.3564    0.0000 O   0  0  0  0  0  0  0  0  0  0  0  0
   -3.5285    0.7500    0.0000 C   0  0  0  0  0  0  0  0  0  0  0  0
   -4.2257    0.3635    0.0000 C   0  0  0  0  0  0  0  0  0  0  0  0
   -4.5705    1.8290    0.0000 O   0  0  0  0  0  0  0  0  0  0  0  0
   -5.8948    1.1247    0.0000 C   0  0  0  0  0  0  0  0  0  0  0  0
   -3.5285   -0.7500    0.0000 C   0  0  0  0  0  0  0  0  0  0  0  0
   -2.9184   -2.1203    0.0000 C   0  0  0  0  0  0  0  0  0  0  0  0
   -4.1319   -3.0020    0.0000 C   0  0  0  0  0  0  0  0  0  0  0  0
   -1.8037   -3.1240    0.0000 N   0  0  0  0  0  0  0  0  0  0  0  0
   -0.3771   -3.5875    0.0000 C   0  0  0  0  0  0  0  0  0  0  0  0
   -0.5339   -5.0793    0.0000 O   0  0  0  0  0  0  0  0  0  0  0  0
    1.1147   -3.4307    0.0000 C   0  0  0  0  0  0  0  0  0  0  0  0
    1.5782   -4.8573    0.0000 C   0  0  0  0  0  0  0  0  0  0  0  0
    2.4138   -2.6807    0.0000 C   0  0  0  0  0  0  0  0  0  0  0  0
    3.4175   -3.7955    0.0000 O   0  0  0  0  0  0  0  0  0  0  0  0
    3.2954   -1.4672    0.0000 C   0  0  0  0  0  0  0  0  0  0  0  0
    4.7726   -1.2067    0.0000 C   0  0  0  0  0  0  0  0  0  0  0  0
    4.0903   -2.7393    0.0000 O   0  0  0  0  0  0  0  0  0  0  0  0
  1  2  1  0
  3  2  1  6
  3  4  1  0
  4  5  1  0
  5  6  2  0
  5  7  1  0
  7  8  1  1
  7  9  1  0
  9 10  1  6
 11 10  1  1
 11 12  1  0
 12 13  1  0
 13 14  1  6
 13 15  1  0
 15 16  1  0
 13 17  1  0
 17 18  1  1
 17 19  1  0
 19 20  1  6
 19 21  1  0
  9 22  1  0
 22 23  1  1
 22 24  1  0
 24 25  1  6
 26 25  1  1
 26 27  1  0
 27 28  1  0
 28 29  1  1
 28 30  1  0
 30 31  1  0
 31 32  1  1
 32 33  1  0
 32 34  1  0
 31 35  1  0
 35 36  1  6
 24 37  1  0
 37 38  1  6
 37 39  1  0
 39 40  1  0
 37 41  1  0
 41 42  1  0
 42 43  1  6
 42 44  1  0
 44 45  1  0
 45 46  2  0
 45 47  1  0
 47 48  1  1
 47 49  1  0
 49 50  1  6
 49 51  1  0
 51 52  1  6
 51 53  1  0
 51  3  1  0
 21 11  1  0
 35 26  1  0
M  END
>  <ChEMBL_IDs>  (114) 
CHEMBL553222

>  <target_organism>  (114) 
Rattus norvegicus

>  <target_molecule_pref_name>  (114) 
None

>  <# Known Targets>  (114) 
1.0

>  <Known Targets>  (114) 
CHEMBL612545

>  <smiles>  (114) 
CC[C@H]1OC(=O)[C@H](C)[C@@H](O[C@H]2C[C@@](C)(OC)[C@@H](O)[C@H](C)O2)[C@H](C)[C@@H](O[C@@H]2O[C@H](C)C[C@H](N(C)C)[C@H]2O)[C@](C)(OC)C[C@@H](C)NC(=O)[C@H](C)[C@@H](O)[C@]1(C)O

$$$$

     RDKit          2D

 53 55  0  0  0  0  0  0  0  0999 V2000
    5.6205   -1.2990    0.0000 C   0  0  0  0  0  0  0  0  0  0  0  0
    4.8705    0.0000    0.0000 C   0  0  0  0  0  0  0  0  0  0  0  0
    3.3705    0.0000    0.0000 C   0  0  0  0  0  0  0  0  0  0  0  0
    3.0367   -1.4624    0.0000 O   0  0  0  0  0  0  0  0  0  0  0  0
    2.1015   -2.6351    0.0000 C   0  0  0  0  0  0  0  0  0  0  0  0
    3.0367   -3.8079    0.0000 O   0  0  0  0  0  0  0  0  0  0  0  0
    0.7500   -3.2860    0.0000 C   0  0  0  0  0  0  0  0  0  0  0  0
    1.3600   -4.4903    0.0000 C   0  0  0  0  0  0  0  0  0  0  0  0
   -0.7500   -3.2860    0.0000 C   0  0  0  0  0  0  0  0  0  0  0  0
   -1.0838   -4.7484    0.0000 O   0  0  0  0  0  0  0  0  0  0  0  0
    0.0158   -5.7686    0.0000 C   0  0  0  0  0  0  0  0  0  0  0  0
   -0.3180   -7.2310    0.0000 C   0  0  0  0  0  0  0  0  0  0  0  0
    0.7816   -8.2513    0.0000 C   0  0  0  0  0  0  0  0  0  0  0  0
    1.4659   -9.5861    0.0000 C   0  0  0  0  0  0  0  0  0  0  0  0
   -0.4141   -9.1570    0.0000 O   0  0  0  0  0  0  0  0  0  0  0  0
   -0.2276  -10.6453    0.0000 C   0  0  0  0  0  0  0  0  0  0  0  0
    2.2150   -7.8091    0.0000 C   0  0  0  0  0  0  0  0  0  0  0  0
    3.3145   -8.8294    0.0000 O   0  0  0  0  0  0  0  0  0  0  0  0
    2.5487   -6.3467    0.0000 C   0  0  0  0  0  0  0  0  0  0  0  0
    3.9821   -5.9046    0.0000 C   0  0  0  0  0  0  0  0  0  0  0  0
    1.4492   -5.3265    0.0000 O   0  0  0  0  0  0  0  0  0  0  0  0
   -2.1015   -2.6351    0.0000 C   0  0  0  0  0  0  0  0  0  0  0  0
   -3.0367   -3.8079    0.0000 C   0  0  0  0  0  0  0  0  0  0  0  0
   -3.0367   -1.4624    0.0000 C   0  0  0  0  0  0  0  0  0  0  0  0
   -4.3881   -2.1132    0.0000 O   0  0  0  0  0  0  0  0  0  0  0  0
   -5.6275   -1.2682    0.0000 C   0  0  0  0  0  0  0  0  0  0  0  0
   -5.5154    0.2276    0.0000 O   0  0  0  0  0  0  0  0  0  0  0  0
   -6.7548    1.0725    0.0000 C   0  0  0  0  0  0  0  0  0  0  0  0
   -6.6427    2.5684    0.0000 C   0  0  0  0  0  0  0  0  0  0  0  0
   -8.1062    0.4217    0.0000 C   0  0  0  0  0  0  0  0  0  0  0  0
   -8.2183   -1.0741    0.0000 C   0  0  0  0  0  0  0  0  0  0  0  0
   -9.5698   -1.7249    0.0000 N   0  0  0  0  0  0  0  0  0  0  0  0
  -10.8091   -0.8799    0.0000 C   0  0  0  0  0  0  0  0  0  0  0  0
   -9.6819   -3.2207    0.0000 C   0  0  0  0  0  0  0  0  0  0  0  0
  -11.0333   -3.8715    0.0000 C   0  0  0  0  0  0  0  0  0  0  0  0
  -11.1454   -5.3673    0.0000 F   0  0  0  0  0  0  0  0  0  0  0  0
   -6.9790   -1.9191    0.0000 C   0  0  0  0  0  0  0  0  0  0  0  0
   -7.0910   -3.4149    0.0000 O   0  0  0  0  0  0  0  0  0  0  0  0
   -3.3705    0.0000    0.0000 C   0  0  0  0  0  0  0  0  0  0  0  0
   -4.6098   -0.8450    0.0000 C   0  0  0  0  0  0  0  0  0  0  0  0
   -4.6098    0.8450    0.0000 O   0  0  0  0  0  0  0  0  0  0  0  0
   -3.0367    1.4624    0.0000 C   0  0  0  0  0  0  0  0  0  0  0  0
   -2.1015    2.6351    0.0000 C   0  0  0  0  0  0  0  0  0  0  0  0
   -3.0367    3.8079    0.0000 C   0  0  0  0  0  0  0  0  0  0  0  0
   -0.7500    3.2860    0.0000 C   0  0  0  0  0  0  0  0  0  0  0  0
   -1.0838    4.7484    0.0000 O   0  0  0  0  0  0  0  0  0  0  0  0
    0.7500    3.2860    0.0000 C   0  0  0  0  0  0  0  0  0  0  0  0
    1.0838    4.7484    0.0000 C   0  0  0  0  0  0  0  0  0  0  0  0
    2.1015    2.6351    0.0000 C   0  0  0  0  0  0  0  0  0  0  0  0
    3.0367    3.8079    0.0000 O   0  0  0  0  0  0  0  0  0  0  0  0
    3.0367    1.4624    0.0000 C   0  0  0  0  0  0  0  0  0  0  0  0
    3.7867    2.7614    0.0000 C   0  0  0  0  0  0  0  0  0  0  0  0
    4.5199    1.2388    0.0000 O   0  0  0  0  0  0  0  0  0  0  0  0
  1  2  1  0
  3  2  1  1
  3  4  1  0
  4  5  1  0
  5  6  2  0
  5  7  1  0
  7  8  1  6
  7  9  1  0
  9 10  1  1
 11 10  1  1
 11 12  1  0
 12 13  1  0
 13 14  1  1
 13 15  1  0
 15 16  1  0
 13 17  1  0
 17 18  1  6
 17 19  1  0
 19 20  1  1
 19 21  1  0
  9 22  1  0
 22 23  1  6
 22 24  1  0
 24 25  1  1
 26 25  1  1
 26 27  1  0
 27 28  1  0
 28 29  1  1
 28 30  1  0
 30 31  1  0
 31 32  1  1
 32 33  1  0
 32 34  1  0
 34 35  1  0
 35 36  1  0
 31 37  1  0
 37 38  1  6
 24 39  1  0
 39 40  1  1
 39 41  1  0
 39 42  1  0
 42 43  1  0
 43 44  1  1
 43 45  1  0
 45 46  1  6
 45 47  1  0
 47 48  1  6
 47 49  1  0
 49 50  1  1
 49 51  1  0
 51 52  1  1
 51 53  1  0
 51  3  1  0
 21 11  1  0
 37 26  1  0
M  END
>  <ChEMBL_IDs>  (115) 
CHEMBL1256549

>  <target_organism>  (115) 
nan

>  <target_molecule_pref_name>  (115) 
None

>  <# Known Targets>  (115) 
1.0

>  <Known Targets>  (115) 
CHEMBL5306

>  <smiles>  (115) 
CC[C@H]1OC(=O)[C@H](C)[C@@H](O[C@@H]2C[C@@](C)(OC)[C@@H](O)[C@H](C)O2)[C@H](C)[C@@H](O[C@@H]2O[C@H](C)C[C@H](N(C)CCF)[C@H]2O)[C@](C)(O)C[C@@H](C)[C@H](O)[C@H](C)[C@@H](O)[C@]1(C)O

$$$$

     RDKit          2D

 53 55  0  0  0  0  0  0  0  0999 V2000
    8.3444   -2.5981    0.0000 C   0  0  0  0  0  0  0  0  0  0  0  0
    7.5944   -1.2990    0.0000 C   0  0  0  0  0  0  0  0  0  0  0  0
    6.0944   -1.2990    0.0000 C   0  0  0  0  0  0  0  0  0  0  0  0
    5.3444   -2.5981    0.0000 O   0  0  0  0  0  0  0  0  0  0  0  0
    5.3444    0.0000    0.0000 O   0  0  0  0  0  0  0  0  0  0  0  0
    3.8444    0.0000    0.0000 C   0  0  0  0  0  0  0  0  0  0  0  0
    3.5517   -1.4712    0.0000 C   0  0  0  0  0  0  0  0  0  0  0  0
    2.7184   -2.7184    0.0000 C   0  0  0  0  0  0  0  0  0  0  0  0
    1.4712   -3.5517    0.0000 C   0  0  0  0  0  0  0  0  0  0  0  0
   -0.0000   -3.8444    0.0000 C   0  0  0  0  0  0  0  0  0  0  0  0
   -1.4712   -3.5517    0.0000 C   0  0  0  0  0  0  0  0  0  0  0  0
   -2.7184   -2.7184    0.0000 C   0  0  0  0  0  0  0  0  0  0  0  0
   -3.7790   -3.7790    0.0000 C   0  0  0  0  0  0  0  0  0  0  0  0
   -3.5517   -1.4712    0.0000 O   0  0  0  0  0  0  0  0  0  0  0  0
   -3.8444    0.0000    0.0000 C   0  0  0  0  0  0  0  0  0  0  0  0
   -5.3444    0.0000    0.0000 O   0  0  0  0  0  0  0  0  0  0  0  0
   -3.5517    1.4712    0.0000 C   0  0  0  0  0  0  0  0  0  0  0  0
   -2.7184    2.7184    0.0000 C   0  0  0  0  0  0  0  0  0  0  0  0
   -3.7790    3.7790    0.0000 O   0  0  0  0  0  0  0  0  0  0  0  0
   -1.4712    3.5517    0.0000 C   0  0  0  0  0  0  0  0  0  0  0  0
   -2.0452    4.9376    0.0000 O   0  0  0  0  0  0  0  0  0  0  0  0
   -3.5324    5.1333    0.0000 C   0  0  0  0  0  0  0  0  0  0  0  0
    0.0000    3.8444    0.0000 C   0  0  0  0  0  0  0  0  0  0  0  0
    0.0000    5.3444    0.0000 O   0  0  0  0  0  0  0  0  0  0  0  0
   -1.2990    6.0944    0.0000 C   0  0  0  0  0  0  0  0  0  0  0  0
   -2.5981    5.3444    0.0000 O   0  0  0  0  0  0  0  0  0  0  0  0
   -3.8971    6.0944    0.0000 C   0  0  0  0  0  0  0  0  0  0  0  0
   -5.1962    5.3444    0.0000 C   0  0  0  0  0  0  0  0  0  0  0  0
   -3.8971    7.5944    0.0000 C   0  0  0  0  0  0  0  0  0  0  0  0
   -5.1962    8.3444    0.0000 O   0  0  0  0  0  0  0  0  0  0  0  0
   -6.4952    7.5944    0.0000 C   0  0  0  0  0  0  0  0  0  0  0  0
   -7.7942    8.3444    0.0000 C   0  0  0  0  0  0  0  0  0  0  0  0
   -9.0933    7.5944    0.0000 C   0  0  0  0  0  0  0  0  0  0  0  0
  -10.5705    7.3339    0.0000 C   0  0  0  0  0  0  0  0  0  0  0  0
   -9.6063    9.0039    0.0000 O   0  0  0  0  0  0  0  0  0  0  0  0
   -9.0933    6.0944    0.0000 C   0  0  0  0  0  0  0  0  0  0  0  0
  -10.3923    5.3444    0.0000 O   0  0  0  0  0  0  0  0  0  0  0  0
   -7.7942    5.3444    0.0000 C   0  0  0  0  0  0  0  0  0  0  0  0
   -7.7942    3.8444    0.0000 C   0  0  0  0  0  0  0  0  0  0  0  0
   -6.4952    6.0944    0.0000 O   0  0  0  0  0  0  0  0  0  0  0  0
   -2.5981    8.3444    0.0000 C   0  0  0  0  0  0  0  0  0  0  0  0
   -2.5981    9.8444    0.0000 N   0  0  0  0  0  0  0  0  0  0  0  0
   -3.8971   10.5944    0.0000 C   0  0  0  0  0  0  0  0  0  0  0  0
   -1.2990   10.5944    0.0000 C   0  0  0  0  0  0  0  0  0  0  0  0
   -1.2990    7.5944    0.0000 C   0  0  0  0  0  0  0  0  0  0  0  0
   -0.0000    8.3444    0.0000 O   0  0  0  0  0  0  0  0  0  0  0  0
    1.4712    3.5517    0.0000 C   0  0  0  0  0  0  0  0  0  0  0  0
    2.0452    4.9376    0.0000 C   0  0  0  0  0  0  0  0  0  0  0  0
    3.5324    5.1333    0.0000 C   0  0  0  0  0  0  0  0  0  0  0  0
    4.1064    6.5192    0.0000 O   0  0  0  0  0  0  0  0  0  0  0  0
    2.7184    2.7184    0.0000 C   0  0  0  0  0  0  0  0  0  0  0  0
    3.5517    1.4712    0.0000 C   0  0  0  0  0  0  0  0  0  0  0  0
    4.9376    2.0452    0.0000 C   0  0  0  0  0  0  0  0  0  0  0  0
  1  2  1  0
  2  3  1  0
  3  4  2  0
  3  5  1  0
  6  5  1  1
  6  7  1  0
  7  8  2  0
  8  9  1  0
  9 10  2  0
 10 11  1  0
 11 12  1  0
 12 13  1  1
 12 14  1  0
 14 15  1  0
 15 16  2  0
 15 17  1  0
 17 18  1  0
 18 19  1  1
 18 20  1  0
 20 21  1  6
 21 22  1  0
 20 23  1  0
 23 24  1  1
 25 24  1  6
 25 26  1  0
 26 27  1  0
 27 28  1  6
 27 29  1  0
 29 30  1  1
 31 30  1  6
 31 32  1  0
 32 33  1  0
 33 34  1  1
 33 35  1  0
 33 36  1  0
 36 37  1  6
 36 38  1  0
 38 39  1  1
 38 40  1  0
 29 41  1  0
 41 42  1  6
 42 43  1  0
 42 44  1  0
 41 45  1  0
 45 46  1  1
 23 47  1  0
 47 48  1  1
 48 49  1  0
 49 50  2  0
 47 51  1  0
 51 52  1  0
 52 53  1  1
 52  6  1  0
 45 25  1  0
 40 31  1  0
M  END
>  <ChEMBL_IDs>  (116) 
CHEMBL3244598

>  <target_organism>  (116) 
None

>  <target_molecule_pref_name>  (116) 
None

>  <# Known Targets>  (116) 
1.0

>  <Known Targets>  (116) 
CHEMBL612545

>  <smiles>  (116) 
CCC(=O)O[C@H]1/C=C/C=C/C[C@@H](C)OC(=O)C[C@@H](O)[C@H](OC)[C@@H](O[C@@H]2O[C@H](C)[C@@H](O[C@H]3C[C@@](C)(O)[C@@H](O)[C@H](C)O3)[C@H](N(C)C)[C@H]2O)[C@@H](CC=O)C[C@H]1C

$$$$

     RDKit          2D

 51 53  0  0  0  0  0  0  0  0999 V2000
    5.6205   -1.2990    0.0000 C   0  0  0  0  0  0  0  0  0  0  0  0
    4.8705    0.0000    0.0000 C   0  0  0  0  0  0  0  0  0  0  0  0
    3.3705    0.0000    0.0000 C   0  0  0  0  0  0  0  0  0  0  0  0
    3.0367   -1.4624    0.0000 O   0  0  0  0  0  0  0  0  0  0  0  0
    2.1015   -2.6351    0.0000 C   0  0  0  0  0  0  0  0  0  0  0  0
    3.0367   -3.8079    0.0000 O   0  0  0  0  0  0  0  0  0  0  0  0
    0.7500   -3.2860    0.0000 C   0  0  0  0  0  0  0  0  0  0  0  0
    1.3600   -4.4903    0.0000 C   0  0  0  0  0  0  0  0  0  0  0  0
   -0.7500   -3.2860    0.0000 C   0  0  0  0  0  0  0  0  0  0  0  0
   -1.0838   -4.7484    0.0000 O   0  0  0  0  0  0  0  0  0  0  0  0
    0.0158   -5.7686    0.0000 C   0  0  0  0  0  0  0  0  0  0  0  0
   -0.3180   -7.2310    0.0000 C   0  0  0  0  0  0  0  0  0  0  0  0
    0.7816   -8.2513    0.0000 C   0  0  0  0  0  0  0  0  0  0  0  0
    1.4659   -9.5861    0.0000 C   0  0  0  0  0  0  0  0  0  0  0  0
   -0.4141   -9.1570    0.0000 O   0  0  0  0  0  0  0  0  0  0  0  0
   -0.2276  -10.6453    0.0000 C   0  0  0  0  0  0  0  0  0  0  0  0
    2.2150   -7.8091    0.0000 C   0  0  0  0  0  0  0  0  0  0  0  0
    3.3145   -8.8294    0.0000 O   0  0  0  0  0  0  0  0  0  0  0  0
    2.5487   -6.3467    0.0000 C   0  0  0  0  0  0  0  0  0  0  0  0
    3.9821   -5.9046    0.0000 C   0  0  0  0  0  0  0  0  0  0  0  0
    1.4492   -5.3265    0.0000 O   0  0  0  0  0  0  0  0  0  0  0  0
   -2.1015   -2.6351    0.0000 C   0  0  0  0  0  0  0  0  0  0  0  0
   -3.0367   -3.8079    0.0000 C   0  0  0  0  0  0  0  0  0  0  0  0
   -3.0367   -1.4624    0.0000 C   0  0  0  0  0  0  0  0  0  0  0  0
   -4.3881   -2.1132    0.0000 O   0  0  0  0  0  0  0  0  0  0  0  0
   -5.6275   -1.2682    0.0000 C   0  0  0  0  0  0  0  0  0  0  0  0
   -5.5154    0.2276    0.0000 O   0  0  0  0  0  0  0  0  0  0  0  0
   -6.7548    1.0725    0.0000 C   0  0  0  0  0  0  0  0  0  0  0  0
   -6.6427    2.5684    0.0000 C   0  0  0  0  0  0  0  0  0  0  0  0
   -8.1062    0.4217    0.0000 C   0  0  0  0  0  0  0  0  0  0  0  0
   -8.2183   -1.0741    0.0000 C   0  0  0  0  0  0  0  0  0  0  0  0
   -9.5698   -1.7249    0.0000 N   0  0  0  0  0  0  0  0  0  0  0  0
  -10.8091   -0.8799    0.0000 C   0  0  0  0  0  0  0  0  0  0  0  0
   -9.6819   -3.2207    0.0000 C   0  0  0  0  0  0  0  0  0  0  0  0
   -6.9790   -1.9191    0.0000 C   0  0  0  0  0  0  0  0  0  0  0  0
   -7.0910   -3.4149    0.0000 O   0  0  0  0  0  0  0  0  0  0  0  0
   -3.3705    0.0000    0.0000 C   0  0  0  0  0  0  0  0  0  0  0  0
   -4.6098   -0.8450    0.0000 C   0  0  0  0  0  0  0  0  0  0  0  0
   -4.6098    0.8450    0.0000 O   0  0  0  0  0  0  0  0  0  0  0  0
   -3.0367    1.4624    0.0000 C   0  0  0  0  0  0  0  0  0  0  0  0
   -2.1015    2.6351    0.0000 C   0  0  0  0  0  0  0  0  0  0  0  0
   -3.0367    3.8079    0.0000 C   0  0  0  0  0  0  0  0  0  0  0  0
   -0.7500    3.2860    0.0000 C   0  0  0  0  0  0  0  0  0  0  0  0
   -1.0838    4.7484    0.0000 O   0  0  0  0  0  0  0  0  0  0  0  0
    0.7500    3.2860    0.0000 C   0  0  0  0  0  0  0  0  0  0  0  0
    1.0838    4.7484    0.0000 C   0  0  0  0  0  0  0  0  0  0  0  0
    2.1015    2.6351    0.0000 C   0  0  0  0  0  0  0  0  0  0  0  0
    3.0367    3.8079    0.0000 O   0  0  0  0  0  0  0  0  0  0  0  0
    3.0367    1.4624    0.0000 C   0  0  0  0  0  0  0  0  0  0  0  0
    3.7867    2.7614    0.0000 C   0  0  0  0  0  0  0  0  0  0  0  0
    4.5199    1.2388    0.0000 O   0  0  0  0  0  0  0  0  0  0  0  0
  1  2  1  0
  3  2  1  6
  3  4  1  0
  4  5  1  0
  5  6  2  0
  5  7  1  0
  7  8  1  1
  7  9  1  0
  9 10  1  6
 11 10  1  6
 11 12  1  0
 12 13  1  0
 13 14  1  1
 13 15  1  0
 15 16  1  0
 13 17  1  0
 17 18  1  6
 17 19  1  0
 19 20  1  1
 19 21  1  0
  9 22  1  0
 22 23  1  0
 22 24  1  0
 24 25  1  6
 26 25  1  6
 26 27  1  0
 27 28  1  0
 28 29  1  6
 28 30  1  0
 30 31  1  0
 31 32  1  6
 32 33  1  0
 32 34  1  0
 31 35  1  0
 35 36  1  1
 24 37  1  0
 37 38  1  6
 37 39  1  0
 37 40  1  0
 40 41  1  0
 41 42  1  6
 41 43  1  0
 43 44  2  0
 43 45  1  0
 45 46  1  1
 45 47  1  0
 47 48  1  6
 47 49  1  0
 49 50  1  6
 49 51  1  0
 49  3  1  0
 21 11  1  0
 35 26  1  0
M  END
>  <ChEMBL_IDs>  (117) 
CHEMBL1317549

>  <target_organism>  (117) 
nan

>  <target_molecule_pref_name>  (117) 
None

>  <# Known Targets>  (117) 
1.0

>  <Known Targets>  (117) 
CHEMBL340

>  <smiles>  (117) 
CC[C@@H]1OC(=O)[C@@H](C)[C@H](O[C@H]2C[C@@](C)(OC)[C@@H](O)[C@H](C)O2)C(C)[C@H](O[C@H]2O[C@@H](C)C[C@@H](N(C)C)[C@@H]2O)[C@@](C)(O)C[C@H](C)C(=O)[C@@H](C)[C@H](O)[C@@]1(C)O

$$$$

     RDKit          2D

 51 53  0  0  0  0  0  0  0  0999 V2000
    5.6205   -1.2990    0.0000 C   0  0  0  0  0  0  0  0  0  0  0  0
    4.8705    0.0000    0.0000 C   0  0  0  0  0  0  0  0  0  0  0  0
    3.3705    0.0000    0.0000 C   0  0  0  0  0  0  0  0  0  0  0  0
    3.0367   -1.4624    0.0000 O   0  0  0  0  0  0  0  0  0  0  0  0
    2.1015   -2.6351    0.0000 C   0  0  0  0  0  0  0  0  0  0  0  0
    3.0367   -3.8079    0.0000 O   0  0  0  0  0  0  0  0  0  0  0  0
    0.7500   -3.2860    0.0000 C   0  0  0  0  0  0  0  0  0  0  0  0
    1.3600   -4.4903    0.0000 C   0  0  0  0  0  0  0  0  0  0  0  0
   -0.7500   -3.2860    0.0000 C   0  0  0  0  0  0  0  0  0  0  0  0
   -1.0838   -4.7484    0.0000 O   0  0  0  0  0  0  0  0  0  0  0  0
    0.0158   -5.7686    0.0000 C   0  0  0  0  0  0  0  0  0  0  0  0
   -0.3180   -7.2310    0.0000 C   0  0  0  0  0  0  0  0  0  0  0  0
    0.7816   -8.2513    0.0000 C   0  0  0  0  0  0  0  0  0  0  0  0
    1.4659   -9.5861    0.0000 C   0  0  0  0  0  0  0  0  0  0  0  0
   -0.4141   -9.1570    0.0000 O   0  0  0  0  0  0  0  0  0  0  0  0
   -0.2276  -10.6453    0.0000 C   0  0  0  0  0  0  0  0  0  0  0  0
    2.2150   -7.8091    0.0000 C   0  0  0  0  0  0  0  0  0  0  0  0
    3.3145   -8.8294    0.0000 O   0  0  0  0  0  0  0  0  0  0  0  0
    2.5487   -6.3467    0.0000 C   0  0  0  0  0  0  0  0  0  0  0  0
    3.9821   -5.9046    0.0000 C   0  0  0  0  0  0  0  0  0  0  0  0
    1.4492   -5.3265    0.0000 O   0  0  0  0  0  0  0  0  0  0  0  0
   -2.1015   -2.6351    0.0000 C   0  0  0  0  0  0  0  0  0  0  0  0
   -3.0367   -3.8079    0.0000 C   0  0  0  0  0  0  0  0  0  0  0  0
   -3.0367   -1.4624    0.0000 C   0  0  0  0  0  0  0  0  0  0  0  0
   -4.3881   -2.1132    0.0000 O   0  0  0  0  0  0  0  0  0  0  0  0
   -5.6275   -1.2682    0.0000 C   0  0  0  0  0  0  0  0  0  0  0  0
   -5.5154    0.2276    0.0000 O   0  0  0  0  0  0  0  0  0  0  0  0
   -6.7548    1.0725    0.0000 C   0  0  0  0  0  0  0  0  0  0  0  0
   -6.6427    2.5684    0.0000 C   0  0  0  0  0  0  0  0  0  0  0  0
   -8.1062    0.4217    0.0000 C   0  0  0  0  0  0  0  0  0  0  0  0
   -8.2183   -1.0741    0.0000 C   0  0  0  0  0  0  0  0  0  0  0  0
   -9.5698   -1.7249    0.0000 N   0  0  0  0  0  0  0  0  0  0  0  0
  -10.8091   -0.8799    0.0000 C   0  0  0  0  0  0  0  0  0  0  0  0
   -9.6819   -3.2207    0.0000 C   0  0  0  0  0  0  0  0  0  0  0  0
   -6.9790   -1.9191    0.0000 C   0  0  0  0  0  0  0  0  0  0  0  0
   -7.0910   -3.4149    0.0000 O   0  0  0  0  0  0  0  0  0  0  0  0
   -3.3705    0.0000    0.0000 C   0  0  0  0  0  0  0  0  0  0  0  0
   -4.6098   -0.8450    0.0000 C   0  0  0  0  0  0  0  0  0  0  0  0
   -4.6098    0.8450    0.0000 O   0  0  0  0  0  0  0  0  0  0  0  0
   -3.0367    1.4624    0.0000 C   0  0  0  0  0  0  0  0  0  0  0  0
   -2.1015    2.6351    0.0000 C   0  0  0  0  0  0  0  0  0  0  0  0
   -3.0367    3.8079    0.0000 C   0  0  0  0  0  0  0  0  0  0  0  0
   -0.7500    3.2860    0.0000 C   0  0  0  0  0  0  0  0  0  0  0  0
   -1.0838    4.7484    0.0000 O   0  0  0  0  0  0  0  0  0  0  0  0
    0.7500    3.2860    0.0000 C   0  0  0  0  0  0  0  0  0  0  0  0
    1.0838    4.7484    0.0000 C   0  0  0  0  0  0  0  0  0  0  0  0
    2.1015    2.6351    0.0000 C   0  0  0  0  0  0  0  0  0  0  0  0
    3.0367    3.8079    0.0000 O   0  0  0  0  0  0  0  0  0  0  0  0
    3.0367    1.4624    0.0000 C   0  0  0  0  0  0  0  0  0  0  0  0
    3.7867    2.7614    0.0000 C   0  0  0  0  0  0  0  0  0  0  0  0
    4.5199    1.2388    0.0000 O   0  0  0  0  0  0  0  0  0  0  0  0
  1  2  1  0
  3  2  1  6
  3  4  1  0
  4  5  1  0
  5  6  2  0
  5  7  1  0
  7  8  1  1
  7  9  1  0
  9 10  1  6
 11 10  1  1
 11 12  1  0
 12 13  1  0
 13 14  1  1
 13 15  1  0
 15 16  1  0
 13 17  1  0
 17 18  1  6
 17 19  1  0
 19 20  1  1
 19 21  1  0
  9 22  1  0
 22 23  1  6
 22 24  1  0
 24 25  1  6
 26 25  1  1
 26 27  1  0
 27 28  1  0
 28 29  1  6
 28 30  1  0
 30 31  1  0
 31 32  1  6
 32 33  1  0
 32 34  1  0
 31 35  1  0
 35 36  1  6
 24 37  1  0
 37 38  1  6
 37 39  1  0
 37 40  1  0
 40 41  1  0
 41 42  1  6
 41 43  1  0
 43 44  2  0
 43 45  1  0
 45 46  1  1
 45 47  1  0
 47 48  1  6
 47 49  1  0
 49 50  1  6
 49 51  1  0
 49  3  1  0
 21 11  1  0
 35 26  1  0
M  END
>  <ChEMBL_IDs>  (118) 
CHEMBL1528078

>  <target_organism>  (118) 
None

>  <target_molecule_pref_name>  (118) 
None

>  <# Known Targets>  (118) 
1.0

>  <Known Targets>  (118) 
CHEMBL4372

>  <smiles>  (118) 
CC[C@@H]1OC(=O)[C@@H](C)[C@H](O[C@@H]2C[C@@](C)(OC)[C@@H](O)[C@H](C)O2)[C@H](C)[C@H](O[C@@H]2O[C@@H](C)C[C@@H](N(C)C)[C@H]2O)[C@@](C)(O)C[C@H](C)C(=O)[C@@H](C)[C@H](O)[C@@]1(C)O

$$$$

     RDKit          2D

 51 53  0  0  0  0  0  0  0  0999 V2000
    5.6205   -1.2990    0.0000 C   0  0  0  0  0  0  0  0  0  0  0  0
    4.8705    0.0000    0.0000 C   0  0  0  0  0  0  0  0  0  0  0  0
    3.3705    0.0000    0.0000 C   0  0  0  0  0  0  0  0  0  0  0  0
    3.0367   -1.4624    0.0000 O   0  0  0  0  0  0  0  0  0  0  0  0
    2.1015   -2.6351    0.0000 C   0  0  0  0  0  0  0  0  0  0  0  0
    3.0367   -3.8079    0.0000 O   0  0  0  0  0  0  0  0  0  0  0  0
    0.7500   -3.2860    0.0000 C   0  0  0  0  0  0  0  0  0  0  0  0
    1.3600   -4.4903    0.0000 C   0  0  0  0  0  0  0  0  0  0  0  0
   -0.7500   -3.2860    0.0000 C   0  0  0  0  0  0  0  0  0  0  0  0
   -1.0838   -4.7484    0.0000 O   0  0  0  0  0  0  0  0  0  0  0  0
    0.0158   -5.7686    0.0000 C   0  0  0  0  0  0  0  0  0  0  0  0
   -0.3180   -7.2310    0.0000 C   0  0  0  0  0  0  0  0  0  0  0  0
    0.7816   -8.2513    0.0000 C   0  0  0  0  0  0  0  0  0  0  0  0
    1.4659   -9.5861    0.0000 C   0  0  0  0  0  0  0  0  0  0  0  0
   -0.4141   -9.1570    0.0000 O   0  0  0  0  0  0  0  0  0  0  0  0
   -0.2276  -10.6453    0.0000 C   0  0  0  0  0  0  0  0  0  0  0  0
    2.2150   -7.8091    0.0000 C   0  0  0  0  0  0  0  0  0  0  0  0
    3.3145   -8.8294    0.0000 O   0  0  0  0  0  0  0  0  0  0  0  0
    2.5487   -6.3467    0.0000 C   0  0  0  0  0  0  0  0  0  0  0  0
    3.9821   -5.9046    0.0000 C   0  0  0  0  0  0  0  0  0  0  0  0
    1.4492   -5.3265    0.0000 O   0  0  0  0  0  0  0  0  0  0  0  0
   -2.1015   -2.6351    0.0000 C   0  0  0  0  0  0  0  0  0  0  0  0
   -3.0367   -3.8079    0.0000 C   0  0  0  0  0  0  0  0  0  0  0  0
   -3.0367   -1.4624    0.0000 C   0  0  0  0  0  0  0  0  0  0  0  0
   -4.3881   -2.1132    0.0000 O   0  0  0  0  0  0  0  0  0  0  0  0
   -5.6275   -1.2682    0.0000 C   0  0  0  0  0  0  0  0  0  0  0  0
   -5.5154    0.2276    0.0000 O   0  0  0  0  0  0  0  0  0  0  0  0
   -6.7548    1.0725    0.0000 C   0  0  0  0  0  0  0  0  0  0  0  0
   -6.6427    2.5684    0.0000 C   0  0  0  0  0  0  0  0  0  0  0  0
   -8.1062    0.4217    0.0000 C   0  0  0  0  0  0  0  0  0  0  0  0
   -8.2183   -1.0741    0.0000 C   0  0  0  0  0  0  0  0  0  0  0  0
   -9.5698   -1.7249    0.0000 N   0  0  0  0  0  0  0  0  0  0  0  0
  -10.8091   -0.8799    0.0000 C   0  0  0  0  0  0  0  0  0  0  0  0
   -9.6819   -3.2207    0.0000 C   0  0  0  0  0  0  0  0  0  0  0  0
   -6.9790   -1.9191    0.0000 C   0  0  0  0  0  0  0  0  0  0  0  0
   -7.0910   -3.4149    0.0000 O   0  0  0  0  0  0  0  0  0  0  0  0
   -3.3705    0.0000    0.0000 C   0  0  0  0  0  0  0  0  0  0  0  0
   -4.6098   -0.8450    0.0000 C   0  0  0  0  0  0  0  0  0  0  0  0
   -4.6098    0.8450    0.0000 O   0  0  0  0  0  0  0  0  0  0  0  0
   -3.0367    1.4624    0.0000 C   0  0  0  0  0  0  0  0  0  0  0  0
   -2.1015    2.6351    0.0000 C   0  0  0  0  0  0  0  0  0  0  0  0
   -3.0367    3.8079    0.0000 C   0  0  0  0  0  0  0  0  0  0  0  0
   -0.7500    3.2860    0.0000 C   0  0  0  0  0  0  0  0  0  0  0  0
   -1.0838    4.7484    0.0000 O   0  0  0  0  0  0  0  0  0  0  0  0
    0.7500    3.2860    0.0000 C   0  0  0  0  0  0  0  0  0  0  0  0
    1.0838    4.7484    0.0000 C   0  0  0  0  0  0  0  0  0  0  0  0
    2.1015    2.6351    0.0000 C   0  0  0  0  0  0  0  0  0  0  0  0
    3.0367    3.8079    0.0000 O   0  0  0  0  0  0  0  0  0  0  0  0
    3.0367    1.4624    0.0000 C   0  0  0  0  0  0  0  0  0  0  0  0
    3.7867    2.7614    0.0000 C   0  0  0  0  0  0  0  0  0  0  0  0
    4.5199    1.2388    0.0000 O   0  0  0  0  0  0  0  0  0  0  0  0
  1  2  1  0
  2  3  1  0
  3  4  1  0
  4  5  1  0
  5  6  2  0
  5  7  1  0
  7  8  1  0
  7  9  1  0
  9 10  1  0
 10 11  1  0
 11 12  1  0
 12 13  1  0
 13 14  1  0
 13 15  1  0
 15 16  1  0
 13 17  1  0
 17 18  1  0
 17 19  1  0
 19 20  1  0
 19 21  1  0
  9 22  1  0
 22 23  1  0
 22 24  1  0
 24 25  1  0
 25 26  1  0
 26 27  1  0
 27 28  1  0
 28 29  1  0
 28 30  1  0
 30 31  1  0
 31 32  1  0
 32 33  1  0
 32 34  1  0
 31 35  1  0
 35 36  1  0
 24 37  1  0
 37 38  1  0
 37 39  1  0
 37 40  1  0
 40 41  1  0
 41 42  1  0
 41 43  1  0
 43 44  2  0
 43 45  1  0
 45 46  1  0
 45 47  1  0
 47 48  1  0
 47 49  1  0
 49 50  1  0
 49 51  1  0
 49  3  1  0
 21 11  1  0
 35 26  1  0
M  END
>  <ChEMBL_IDs>  (119) 
CHEMBL1671887

>  <target_organism>  (119) 
None

>  <target_molecule_pref_name>  (119) 
None

>  <# Known Targets>  (119) 
1.0

>  <Known Targets>  (119) 
CHEMBL240

>  <smiles>  (119) 
CCC1OC(=O)C(C)C(OC2CC(C)(OC)C(O)C(C)O2)C(C)C(OC2OC(C)CC(N(C)C)C2O)C(C)(O)CC(C)C(=O)C(C)C(O)C1(C)O

$$$$

     RDKit          2D

 51 53  0  0  0  0  0  0  0  0999 V2000
    5.6205   -1.2990    0.0000 C   0  0  0  0  0  0  0  0  0  0  0  0
    4.8705    0.0000    0.0000 C   0  0  0  0  0  0  0  0  0  0  0  0
    3.3705    0.0000    0.0000 C   0  0  0  0  0  0  0  0  0  0  0  0
    3.0367   -1.4624    0.0000 O   0  0  0  0  0  0  0  0  0  0  0  0
    2.1015   -2.6351    0.0000 C   0  0  0  0  0  0  0  0  0  0  0  0
    3.0367   -3.8079    0.0000 O   0  0  0  0  0  0  0  0  0  0  0  0
    0.7500   -3.2860    0.0000 C   0  0  0  0  0  0  0  0  0  0  0  0
    1.3600   -4.4903    0.0000 C   0  0  0  0  0  0  0  0  0  0  0  0
   -0.7500   -3.2860    0.0000 C   0  0  0  0  0  0  0  0  0  0  0  0
   -1.0838   -4.7484    0.0000 O   0  0  0  0  0  0  0  0  0  0  0  0
    0.0158   -5.7686    0.0000 C   0  0  0  0  0  0  0  0  0  0  0  0
   -0.3180   -7.2310    0.0000 C   0  0  0  0  0  0  0  0  0  0  0  0
    0.7816   -8.2513    0.0000 C   0  0  0  0  0  0  0  0  0  0  0  0
    1.4659   -9.5861    0.0000 C   0  0  0  0  0  0  0  0  0  0  0  0
   -0.4141   -9.1570    0.0000 O   0  0  0  0  0  0  0  0  0  0  0  0
   -0.2276  -10.6453    0.0000 C   0  0  0  0  0  0  0  0  0  0  0  0
    2.2150   -7.8091    0.0000 C   0  0  0  0  0  0  0  0  0  0  0  0
    3.3145   -8.8294    0.0000 O   0  0  0  0  0  0  0  0  0  0  0  0
    2.5487   -6.3467    0.0000 C   0  0  0  0  0  0  0  0  0  0  0  0
    3.9821   -5.9046    0.0000 C   0  0  0  0  0  0  0  0  0  0  0  0
    1.4492   -5.3265    0.0000 O   0  0  0  0  0  0  0  0  0  0  0  0
   -2.1015   -2.6351    0.0000 C   0  0  0  0  0  0  0  0  0  0  0  0
   -3.0367   -3.8079    0.0000 C   0  0  0  0  0  0  0  0  0  0  0  0
   -3.0367   -1.4624    0.0000 C   0  0  0  0  0  0  0  0  0  0  0  0
   -4.3881   -2.1132    0.0000 O   0  0  0  0  0  0  0  0  0  0  0  0
   -5.6275   -1.2682    0.0000 C   0  0  0  0  0  0  0  0  0  0  0  0
   -5.5154    0.2276    0.0000 O   0  0  0  0  0  0  0  0  0  0  0  0
   -6.7548    1.0725    0.0000 C   0  0  0  0  0  0  0  0  0  0  0  0
   -6.6427    2.5684    0.0000 C   0  0  0  0  0  0  0  0  0  0  0  0
   -8.1062    0.4217    0.0000 C   0  0  0  0  0  0  0  0  0  0  0  0
   -8.2183   -1.0741    0.0000 C   0  0  0  0  0  0  0  0  0  0  0  0
   -9.5698   -1.7249    0.0000 N   0  0  0  0  0  0  0  0  0  0  0  0
  -10.8091   -0.8799    0.0000 C   0  0  0  0  0  0  0  0  0  0  0  0
   -9.6819   -3.2207    0.0000 C   0  0  0  0  0  0  0  0  0  0  0  0
   -6.9790   -1.9191    0.0000 C   0  0  0  0  0  0  0  0  0  0  0  0
   -7.0910   -3.4149    0.0000 O   0  0  0  0  0  0  0  0  0  0  0  0
   -3.3705    0.0000    0.0000 C   0  0  0  0  0  0  0  0  0  0  0  0
   -4.6098   -0.8450    0.0000 C   0  0  0  0  0  0  0  0  0  0  0  0
   -4.6098    0.8450    0.0000 O   0  0  0  0  0  0  0  0  0  0  0  0
   -3.0367    1.4624    0.0000 C   0  0  0  0  0  0  0  0  0  0  0  0
   -2.1015    2.6351    0.0000 C   0  0  0  0  0  0  0  0  0  0  0  0
   -3.0367    3.8079    0.0000 C   0  0  0  0  0  0  0  0  0  0  0  0
   -0.7500    3.2860    0.0000 C   0  0  0  0  0  0  0  0  0  0  0  0
   -1.0838    4.7484    0.0000 O   0  0  0  0  0  0  0  0  0  0  0  0
    0.7500    3.2860    0.0000 C   0  0  0  0  0  0  0  0  0  0  0  0
    1.0838    4.7484    0.0000 C   0  0  0  0  0  0  0  0  0  0  0  0
    2.1015    2.6351    0.0000 C   0  0  0  0  0  0  0  0  0  0  0  0
    3.0367    3.8079    0.0000 O   0  0  0  0  0  0  0  0  0  0  0  0
    3.0367    1.4624    0.0000 C   0  0  0  0  0  0  0  0  0  0  0  0
    3.7867    2.7614    0.0000 C   0  0  0  0  0  0  0  0  0  0  0  0
    4.5199    1.2388    0.0000 O   0  0  0  0  0  0  0  0  0  0  0  0
  1  2  1  0
  2  3  1  0
  3  4  1  0
  4  5  1  0
  5  6  2  0
  5  7  1  0
  7  8  1  0
  7  9  1  0
  9 10  1  0
 10 11  1  0
 11 12  1  0
 12 13  1  0
 13 14  1  0
 13 15  1  0
 15 16  1  0
 13 17  1  0
 17 18  1  0
 17 19  1  0
 19 20  1  0
 19 21  1  0
  9 22  1  0
 22 23  1  0
 22 24  1  0
 24 25  1  0
 25 26  1  0
 26 27  1  0
 27 28  1  0
 28 29  1  0
 28 30  1  0
 30 31  1  0
 31 32  1  0
 32 33  1  0
 32 34  1  0
 31 35  1  0
 35 36  1  0
 24 37  1  0
 37 38  1  0
 37 39  1  0
 37 40  1  0
 40 41  1  0
 41 42  1  0
 41 43  1  0
 43 44  2  0
 43 45  1  0
 45 46  1  0
 45 47  1  0
 47 48  1  0
 47 49  1  0
 49 50  1  0
 49 51  1  0
 49  3  1  0
 21 11  1  0
 35 26  1  0
M  END
>  <ChEMBL_IDs>  (120) 
CHEMBL1671887

>  <target_organism>  (120) 
None

>  <target_molecule_pref_name>  (120) 
None

>  <# Known Targets>  (120) 
1.0

>  <Known Targets>  (120) 
CHEMBL240

>  <smiles>  (120) 
CCC1OC(=O)C(C)C(OC2CC(C)(OC)C(O)C(C)O2)C(C)C(OC2OC(C)CC(N(C)C)C2O)C(C)(O)CC(C)C(=O)C(C)C(O)C1(C)O

$$$$

     RDKit          2D

 51 53  0  0  0  0  0  0  0  0999 V2000
    5.6205   -1.2990    0.0000 C   0  0  0  0  0  0  0  0  0  0  0  0
    4.8705    0.0000    0.0000 C   0  0  0  0  0  0  0  0  0  0  0  0
    3.3705    0.0000    0.0000 C   0  0  0  0  0  0  0  0  0  0  0  0
    3.0367   -1.4624    0.0000 O   0  0  0  0  0  0  0  0  0  0  0  0
    2.1015   -2.6351    0.0000 C   0  0  0  0  0  0  0  0  0  0  0  0
    3.0367   -3.8079    0.0000 O   0  0  0  0  0  0  0  0  0  0  0  0
    0.7500   -3.2860    0.0000 C   0  0  0  0  0  0  0  0  0  0  0  0
    1.3600   -4.4903    0.0000 C   0  0  0  0  0  0  0  0  0  0  0  0
   -0.7500   -3.2860    0.0000 C   0  0  0  0  0  0  0  0  0  0  0  0
   -1.0838   -4.7484    0.0000 O   0  0  0  0  0  0  0  0  0  0  0  0
    0.0158   -5.7686    0.0000 C   0  0  0  0  0  0  0  0  0  0  0  0
   -0.3180   -7.2310    0.0000 C   0  0  0  0  0  0  0  0  0  0  0  0
    0.7816   -8.2513    0.0000 C   0  0  0  0  0  0  0  0  0  0  0  0
    1.4659   -9.5861    0.0000 C   0  0  0  0  0  0  0  0  0  0  0  0
   -0.4141   -9.1570    0.0000 O   0  0  0  0  0  0  0  0  0  0  0  0
   -0.2276  -10.6453    0.0000 C   0  0  0  0  0  0  0  0  0  0  0  0
    2.2150   -7.8091    0.0000 C   0  0  0  0  0  0  0  0  0  0  0  0
    3.3145   -8.8294    0.0000 O   0  0  0  0  0  0  0  0  0  0  0  0
    2.5487   -6.3467    0.0000 C   0  0  0  0  0  0  0  0  0  0  0  0
    3.9821   -5.9046    0.0000 C   0  0  0  0  0  0  0  0  0  0  0  0
    1.4492   -5.3265    0.0000 O   0  0  0  0  0  0  0  0  0  0  0  0
   -2.1015   -2.6351    0.0000 C   0  0  0  0  0  0  0  0  0  0  0  0
   -3.0367   -3.8079    0.0000 C   0  0  0  0  0  0  0  0  0  0  0  0
   -3.0367   -1.4624    0.0000 C   0  0  0  0  0  0  0  0  0  0  0  0
   -4.3881   -2.1132    0.0000 O   0  0  0  0  0  0  0  0  0  0  0  0
   -5.6275   -1.2682    0.0000 C   0  0  0  0  0  0  0  0  0  0  0  0
   -5.5154    0.2276    0.0000 O   0  0  0  0  0  0  0  0  0  0  0  0
   -6.7548    1.0725    0.0000 C   0  0  0  0  0  0  0  0  0  0  0  0
   -6.6427    2.5684    0.0000 C   0  0  0  0  0  0  0  0  0  0  0  0
   -8.1062    0.4217    0.0000 C   0  0  0  0  0  0  0  0  0  0  0  0
   -8.2183   -1.0741    0.0000 C   0  0  0  0  0  0  0  0  0  0  0  0
   -9.5698   -1.7249    0.0000 N   0  0  0  0  0  0  0  0  0  0  0  0
  -10.8091   -0.8799    0.0000 C   0  0  0  0  0  0  0  0  0  0  0  0
   -9.6819   -3.2207    0.0000 C   0  0  0  0  0  0  0  0  0  0  0  0
   -6.9790   -1.9191    0.0000 C   0  0  0  0  0  0  0  0  0  0  0  0
   -7.0910   -3.4149    0.0000 O   0  0  0  0  0  0  0  0  0  0  0  0
   -3.3705    0.0000    0.0000 C   0  0  0  0  0  0  0  0  0  0  0  0
   -4.6098   -0.8450    0.0000 C   0  0  0  0  0  0  0  0  0  0  0  0
   -4.6098    0.8450    0.0000 O   0  0  0  0  0  0  0  0  0  0  0  0
   -3.0367    1.4624    0.0000 C   0  0  0  0  0  0  0  0  0  0  0  0
   -2.1015    2.6351    0.0000 C   0  0  0  0  0  0  0  0  0  0  0  0
   -3.0367    3.8079    0.0000 C   0  0  0  0  0  0  0  0  0  0  0  0
   -0.7500    3.2860    0.0000 C   0  0  0  0  0  0  0  0  0  0  0  0
   -1.0838    4.7484    0.0000 O   0  0  0  0  0  0  0  0  0  0  0  0
    0.7500    3.2860    0.0000 C   0  0  0  0  0  0  0  0  0  0  0  0
    1.0838    4.7484    0.0000 C   0  0  0  0  0  0  0  0  0  0  0  0
    2.1015    2.6351    0.0000 C   0  0  0  0  0  0  0  0  0  0  0  0
    3.0367    3.8079    0.0000 O   0  0  0  0  0  0  0  0  0  0  0  0
    3.0367    1.4624    0.0000 C   0  0  0  0  0  0  0  0  0  0  0  0
    3.7867    2.7614    0.0000 C   0  0  0  0  0  0  0  0  0  0  0  0
    4.5199    1.2388    0.0000 O   0  0  0  0  0  0  0  0  0  0  0  0
  1  2  1  0
  2  3  1  0
  3  4  1  0
  4  5  1  0
  5  6  2  0
  5  7  1  0
  7  8  1  0
  7  9  1  0
  9 10  1  0
 10 11  1  0
 11 12  1  0
 12 13  1  0
 13 14  1  0
 13 15  1  0
 15 16  1  0
 13 17  1  0
 17 18  1  0
 17 19  1  0
 19 20  1  0
 19 21  1  0
  9 22  1  0
 22 23  1  0
 22 24  1  0
 24 25  1  0
 25 26  1  0
 26 27  1  0
 27 28  1  0
 28 29  1  0
 28 30  1  0
 30 31  1  0
 31 32  1  0
 32 33  1  0
 32 34  1  0
 31 35  1  0
 35 36  1  0
 24 37  1  0
 37 38  1  0
 37 39  1  0
 37 40  1  0
 40 41  1  0
 41 42  1  0
 41 43  1  0
 43 44  2  0
 43 45  1  0
 45 46  1  0
 45 47  1  0
 47 48  1  0
 47 49  1  0
 49 50  1  0
 49 51  1  0
 49  3  1  0
 21 11  1  0
 35 26  1  0
M  END
>  <ChEMBL_IDs>  (121) 
CHEMBL1671887

>  <target_organism>  (121) 
None

>  <target_molecule_pref_name>  (121) 
None

>  <# Known Targets>  (121) 
1.0

>  <Known Targets>  (121) 
CHEMBL240

>  <smiles>  (121) 
CCC1OC(=O)C(C)C(OC2CC(C)(OC)C(O)C(C)O2)C(C)C(OC2OC(C)CC(N(C)C)C2O)C(C)(O)CC(C)C(=O)C(C)C(O)C1(C)O

$$$$

     RDKit          2D

 53 55  0  0  0  0  0  0  0  0999 V2000
    5.8573   -1.2990    0.0000 C   0  0  0  0  0  0  0  0  0  0  0  0
    5.1073    0.0000    0.0000 C   0  0  0  0  0  0  0  0  0  0  0  0
    3.6073    0.0000    0.0000 C   0  0  0  0  0  0  0  0  0  0  0  0
    3.2954    1.4672    0.0000 O   0  0  0  0  0  0  0  0  0  0  0  0
    2.4138    2.6807    0.0000 C   0  0  0  0  0  0  0  0  0  0  0  0
    3.4175    3.7955    0.0000 O   0  0  0  0  0  0  0  0  0  0  0  0
    1.1147    3.4307    0.0000 C   0  0  0  0  0  0  0  0  0  0  0  0
    1.8302    4.5756    0.0000 C   0  0  0  0  0  0  0  0  0  0  0  0
   -0.3771    3.5875    0.0000 C   0  0  0  0  0  0  0  0  0  0  0  0
   -0.5339    5.0793    0.0000 O   0  0  0  0  0  0  0  0  0  0  0  0
    0.6797    5.9610    0.0000 C   0  0  0  0  0  0  0  0  0  0  0  0
    0.5229    7.4528    0.0000 C   0  0  0  0  0  0  0  0  0  0  0  0
    1.7364    8.3345    0.0000 C   0  0  0  0  0  0  0  0  0  0  0  0
    2.5752    9.5780    0.0000 C   0  0  0  0  0  0  0  0  0  0  0  0
    0.6574    9.3764    0.0000 O   0  0  0  0  0  0  0  0  0  0  0  0
    1.0203   10.8319    0.0000 C   0  0  0  0  0  0  0  0  0  0  0  0
    3.1067    7.7244    0.0000 C   0  0  0  0  0  0  0  0  0  0  0  0
    4.3202    8.6060    0.0000 O   0  0  0  0  0  0  0  0  0  0  0  0
    3.2635    6.2326    0.0000 C   0  0  0  0  0  0  0  0  0  0  0  0
    4.6338    5.6225    0.0000 C   0  0  0  0  0  0  0  0  0  0  0  0
    2.0500    5.3509    0.0000 O   0  0  0  0  0  0  0  0  0  0  0  0
   -1.8037    3.1240    0.0000 C   0  0  0  0  0  0  0  0  0  0  0  0
   -2.5537    4.4231    0.0000 C   0  0  0  0  0  0  0  0  0  0  0  0
   -2.9184    2.1203    0.0000 C   0  0  0  0  0  0  0  0  0  0  0  0
   -4.1319    3.0020    0.0000 O   0  0  0  0  0  0  0  0  0  0  0  0
   -5.5022    2.3919    0.0000 C   0  0  0  0  0  0  0  0  0  0  0  0
   -6.7157    3.2736    0.0000 O   0  0  0  0  0  0  0  0  0  0  0  0
   -8.0861    2.6635    0.0000 C   0  0  0  0  0  0  0  0  0  0  0  0
   -9.2996    3.5451    0.0000 C   0  0  0  0  0  0  0  0  0  0  0  0
   -8.2428    1.1717    0.0000 C   0  0  0  0  0  0  0  0  0  0  0  0
   -7.0293    0.2900    0.0000 C   0  0  0  0  0  0  0  0  0  0  0  0
   -7.1861   -1.2018    0.0000 N   0  0  0  0  0  0  0  0  0  0  0  0
   -8.5564   -1.8119    0.0000 C   0  0  0  0  0  0  0  0  0  0  0  0
   -5.9726   -2.0835    0.0000 C   0  0  0  0  0  0  0  0  0  0  0  0
   -5.6590    0.9001    0.0000 C   0  0  0  0  0  0  0  0  0  0  0  0
   -5.0760    0.3564    0.0000 O   0  0  0  0  0  0  0  0  0  0  0  0
   -3.5285    0.7500    0.0000 C   0  0  0  0  0  0  0  0  0  0  0  0
   -4.2257    0.3635    0.0000 C   0  0  0  0  0  0  0  0  0  0  0  0
   -4.5705    1.8290    0.0000 O   0  0  0  0  0  0  0  0  0  0  0  0
   -5.8948    1.1247    0.0000 C   0  0  0  0  0  0  0  0  0  0  0  0
   -3.5285   -0.7500    0.0000 C   0  0  0  0  0  0  0  0  0  0  0  0
   -2.9184   -2.1203    0.0000 C   0  0  0  0  0  0  0  0  0  0  0  0
   -4.1319   -3.0020    0.0000 C   0  0  0  0  0  0  0  0  0  0  0  0
   -1.8037   -3.1240    0.0000 C   0  0  0  0  0  0  0  0  0  0  0  0
   -0.3771   -3.5875    0.0000 N   0  0  0  0  0  0  0  0  0  0  0  0
   -0.5339   -5.0793    0.0000 C   0  0  0  0  0  0  0  0  0  0  0  0
    1.1147   -3.4307    0.0000 C   0  0  0  0  0  0  0  0  0  0  0  0
    1.5782   -4.8573    0.0000 C   0  0  0  0  0  0  0  0  0  0  0  0
    2.4138   -2.6807    0.0000 C   0  0  0  0  0  0  0  0  0  0  0  0
    3.4175   -3.7955    0.0000 O   0  0  0  0  0  0  0  0  0  0  0  0
    3.2954   -1.4672    0.0000 C   0  0  0  0  0  0  0  0  0  0  0  0
    4.7726   -1.2067    0.0000 C   0  0  0  0  0  0  0  0  0  0  0  0
    4.0903   -2.7393    0.0000 O   0  0  0  0  0  0  0  0  0  0  0  0
  1  2  1  0
  3  2  1  6
  3  4  1  0
  4  5  1  0
  5  6  2  0
  5  7  1  0
  7  8  1  1
  7  9  1  0
  9 10  1  6
 11 10  1  1
 11 12  1  0
 12 13  1  0
 13 14  1  6
 13 15  1  0
 15 16  1  0
 13 17  1  0
 17 18  1  1
 17 19  1  0
 19 20  1  6
 19 21  1  0
  9 22  1  0
 22 23  1  1
 22 24  1  0
 24 25  1  6
 26 25  1  1
 26 27  1  0
 27 28  1  0
 28 29  1  1
 28 30  1  0
 30 31  1  0
 31 32  1  1
 32 33  1  0
 32 34  1  0
 31 35  1  0
 35 36  1  6
 24 37  1  0
 37 38  1  6
 37 39  1  0
 39 40  1  0
 37 41  1  0
 41 42  1  0
 42 43  1  6
 42 44  1  0
 44 45  1  0
 45 46  1  0
 45 47  1  0
 47 48  1  1
 47 49  1  0
 49 50  1  6
 49 51  1  0
 51 52  1  6
 51 53  1  0
 51  3  1  0
 21 11  1  0
 35 26  1  0
M  END
>  <ChEMBL_IDs>  (122) 
CHEMBL311220

>  <target_organism>  (122) 
None

>  <target_molecule_pref_name>  (122) 
None

>  <# Known Targets>  (122) 
1.0

>  <Known Targets>  (122) 
CHEMBL612888

>  <smiles>  (122) 
CC[C@H]1OC(=O)[C@H](C)[C@@H](O[C@H]2C[C@@](C)(OC)[C@@H](O)[C@H](C)O2)[C@H](C)[C@@H](O[C@@H]2O[C@H](C)C[C@H](N(C)C)[C@H]2O)[C@](C)(OC)C[C@@H](C)CN(C)[C@H](C)[C@@H](O)[C@]1(C)O

$$$$

     RDKit          2D

 56 58  0  0  0  0  0  0  0  0999 V2000
   15.0299   -9.0377    0.0000 C   0  0  0  0  0  0  0  0  0  0  0  0
   13.8398   -9.9509    0.0000 C   0  0  0  0  0  0  0  0  0  0  0  0
   12.4540   -9.3768    0.0000 C   0  0  0  0  0  0  0  0  0  0  0  0
   12.2582   -7.8897    0.0000 O   0  0  0  0  0  0  0  0  0  0  0  0
   11.2640  -10.2900    0.0000 O   0  0  0  0  0  0  0  0  0  0  0  0
    9.8782   -9.7159    0.0000 C   0  0  0  0  0  0  0  0  0  0  0  0
    9.6824   -8.2288    0.0000 C   0  0  0  0  0  0  0  0  0  0  0  0
   10.8724   -7.3156    0.0000 C   0  0  0  0  0  0  0  0  0  0  0  0
    8.2966   -7.6548    0.0000 O   0  0  0  0  0  0  0  0  0  0  0  0
    7.1065   -8.5679    0.0000 C   0  0  0  0  0  0  0  0  0  0  0  0
    5.7207   -7.9939    0.0000 O   0  0  0  0  0  0  0  0  0  0  0  0
    5.5249   -6.5067    0.0000 C   0  0  0  0  0  0  0  0  0  0  0  0
    4.1391   -5.9327    0.0000 C   0  0  0  0  0  0  0  0  0  0  0  0
    2.9491   -6.8458    0.0000 C   0  0  0  0  0  0  0  0  0  0  0  0
    3.9433   -4.4455    0.0000 O   0  0  0  0  0  0  0  0  0  0  0  0
    5.1333   -3.5324    0.0000 C   0  0  0  0  0  0  0  0  0  0  0  0
    4.9376   -2.0452    0.0000 O   0  0  0  0  0  0  0  0  0  0  0  0
    3.5517   -1.4712    0.0000 C   0  0  0  0  0  0  0  0  0  0  0  0
    3.8444    0.0000    0.0000 C   0  0  0  0  0  0  0  0  0  0  0  0
    5.3444    0.0000    0.0000 O   0  0  0  0  0  0  0  0  0  0  0  0
    6.0944   -1.2990    0.0000 C   0  0  0  0  0  0  0  0  0  0  0  0
    3.5517    1.4712    0.0000 C   0  0  0  0  0  0  0  0  0  0  0  0
    4.9376    2.0452    0.0000 O   0  0  0  0  0  0  0  0  0  0  0  0
    5.1333    3.5324    0.0000 C   0  0  0  0  0  0  0  0  0  0  0  0
    6.5192    4.1064    0.0000 C   0  0  0  0  0  0  0  0  0  0  0  0
    3.9433    4.4455    0.0000 O   0  0  0  0  0  0  0  0  0  0  0  0
    2.7184    2.7184    0.0000 C   0  0  0  0  0  0  0  0  0  0  0  0
    1.4712    3.5517    0.0000 C   0  0  0  0  0  0  0  0  0  0  0  0
    2.0452    4.9376    0.0000 O   0  0  0  0  0  0  0  0  0  0  0  0
    0.0000    3.8444    0.0000 O   0  0  0  0  0  0  0  0  0  0  0  0
   -1.4712    3.5517    0.0000 C   0  0  0  0  0  0  0  0  0  0  0  0
   -2.0452    4.9376    0.0000 C   0  0  0  0  0  0  0  0  0  0  0  0
   -2.7184    2.7184    0.0000 C   0  0  0  0  0  0  0  0  0  0  0  0
   -3.5517    1.4712    0.0000 C   0  0  0  0  0  0  0  0  0  0  0  0
   -3.8444    0.0000    0.0000 C   0  0  0  0  0  0  0  0  0  0  0  0
   -3.5517   -1.4712    0.0000 C   0  0  0  0  0  0  0  0  0  0  0  0
   -2.7184   -2.7184    0.0000 C   0  0  0  0  0  0  0  0  0  0  0  0
   -1.4712   -3.5517    0.0000 C   0  0  0  0  0  0  0  0  0  0  0  0
   -2.0452   -4.9376    0.0000 O   0  0  0  0  0  0  0  0  0  0  0  0
   -0.0000   -3.8444    0.0000 C   0  0  0  0  0  0  0  0  0  0  0  0
   -0.0000   -5.3444    0.0000 C   0  0  0  0  0  0  0  0  0  0  0  0
    1.4712   -3.5517    0.0000 C   0  0  0  0  0  0  0  0  0  0  0  0
    2.7184   -2.7184    0.0000 C   0  0  0  0  0  0  0  0  0  0  0  0
    3.7790   -3.7790    0.0000 C   0  0  0  0  0  0  0  0  0  0  0  0
    3.3908   -5.2279    0.0000 C   0  0  0  0  0  0  0  0  0  0  0  0
    4.1633   -6.5137    0.0000 O   0  0  0  0  0  0  0  0  0  0  0  0
    6.5192   -4.1064    0.0000 C   0  0  0  0  0  0  0  0  0  0  0  0
    7.7092   -3.1933    0.0000 O   0  0  0  0  0  0  0  0  0  0  0  0
    6.7150   -5.5936    0.0000 C   0  0  0  0  0  0  0  0  0  0  0  0
    8.1008   -6.1676    0.0000 N   0  0  0  0  0  0  0  0  0  0  0  0
    9.2908   -5.2544    0.0000 C   0  0  0  0  0  0  0  0  0  0  0  0
    8.6506   -7.5632    0.0000 C   0  0  0  0  0  0  0  0  0  0  0  0
    7.3023  -10.0551    0.0000 C   0  0  0  0  0  0  0  0  0  0  0  0
    8.6881  -10.6291    0.0000 C   0  0  0  0  0  0  0  0  0  0  0  0
    7.8822  -11.8942    0.0000 C   0  0  0  0  0  0  0  0  0  0  0  0
    9.7941  -11.6425    0.0000 O   0  0  0  0  0  0  0  0  0  0  0  0
  1  2  1  0
  2  3  1  0
  3  4  2  0
  3  5  1  0
  6  5  1  6
  6  7  1  0
  7  8  1  1
  7  9  1  0
  9 10  1  0
 10 11  1  6
 12 11  1  6
 12 13  1  0
 13 14  1  1
 13 15  1  0
 15 16  1  0
 16 17  1  1
 18 17  1  1
 18 19  1  0
 19 20  1  6
 20 21  1  0
 19 22  1  0
 22 23  1  1
 23 24  1  0
 24 25  1  0
 24 26  2  0
 22 27  1  0
 27 28  1  0
 28 29  2  0
 28 30  1  0
 30 31  1  0
 31 32  1  1
 31 33  1  0
 33 34  1  0
 34 35  2  0
 35 36  1  0
 36 37  2  0
 37 38  1  0
 38 39  1  1
 38 40  1  0
 40 41  1  1
 40 42  1  0
 42 43  1  0
 43 44  1  1
 44 45  1  0
 45 46  2  0
 16 47  1  0
 47 48  1  6
 47 49  1  0
 49 50  1  1
 50 51  1  0
 50 52  1  0
 10 53  1  0
 53 54  1  0
 54 55  1  1
 54 56  1  0
 54  6  1  0
 49 12  1  0
 43 18  1  0
M  END
>  <ChEMBL_IDs>  (123) 
CHEMBL3251854

>  <target_organism>  (123) 
None

>  <target_molecule_pref_name>  (123) 
None

>  <# Known Targets>  (123) 
1.0

>  <Known Targets>  (123) 
CHEMBL612545

>  <smiles>  (123) 
CCC(=O)O[C@H]1[C@H](C)O[C@@H](O[C@@H]2[C@@H](C)O[C@@H](O[C@@H]3[C@@H](OC)[C@H](OC(C)=O)CC(=O)O[C@H](C)C/C=C/C=C/[C@H](O)[C@H](C)C[C@@H]3CC=O)[C@H](O)[C@H]2N(C)C)C[C@@]1(C)O

$$$$

     RDKit          2D

 57 59  0  0  0  0  0  0  0  0999 V2000
    5.6205   -1.2990    0.0000 C   0  0  0  0  0  0  0  0  0  0  0  0
    4.8705    0.0000    0.0000 C   0  0  0  0  0  0  0  0  0  0  0  0
    3.3705    0.0000    0.0000 C   0  0  0  0  0  0  0  0  0  0  0  0
    3.0367   -1.4624    0.0000 O   0  0  0  0  0  0  0  0  0  0  0  0
    2.1015   -2.6351    0.0000 C   0  0  0  0  0  0  0  0  0  0  0  0
    3.0367   -3.8079    0.0000 O   0  0  0  0  0  0  0  0  0  0  0  0
    0.7500   -3.2860    0.0000 C   0  0  0  0  0  0  0  0  0  0  0  0
    1.3600   -4.4903    0.0000 C   0  0  0  0  0  0  0  0  0  0  0  0
   -0.7500   -3.2860    0.0000 C   0  0  0  0  0  0  0  0  0  0  0  0
   -1.0838   -4.7484    0.0000 O   0  0  0  0  0  0  0  0  0  0  0  0
    0.0158   -5.7686    0.0000 C   0  0  0  0  0  0  0  0  0  0  0  0
   -0.3180   -7.2310    0.0000 C   0  0  0  0  0  0  0  0  0  0  0  0
    0.7816   -8.2513    0.0000 C   0  0  0  0  0  0  0  0  0  0  0  0
    1.4659   -9.5861    0.0000 C   0  0  0  0  0  0  0  0  0  0  0  0
   -0.4141   -9.1570    0.0000 O   0  0  0  0  0  0  0  0  0  0  0  0
   -0.2276  -10.6453    0.0000 C   0  0  0  0  0  0  0  0  0  0  0  0
    2.2150   -7.8091    0.0000 C   0  0  0  0  0  0  0  0  0  0  0  0
    3.3145   -8.8294    0.0000 O   0  0  0  0  0  0  0  0  0  0  0  0
    4.7479   -8.3873    0.0000 C   0  0  0  0  0  0  0  0  0  0  0  0
    5.0817   -6.9249    0.0000 O   0  0  0  0  0  0  0  0  0  0  0  0
    5.8475   -9.4075    0.0000 C   0  0  0  0  0  0  0  0  0  0  0  0
    7.2808   -8.9654    0.0000 C   0  0  0  0  0  0  0  0  0  0  0  0
    7.6146   -7.5030    0.0000 O   0  0  0  0  0  0  0  0  0  0  0  0
    8.3804   -9.9856    0.0000 O   0  0  0  0  0  0  0  0  0  0  0  0
    2.5487   -6.3467    0.0000 C   0  0  0  0  0  0  0  0  0  0  0  0
    3.9821   -5.9046    0.0000 C   0  0  0  0  0  0  0  0  0  0  0  0
    1.4492   -5.3265    0.0000 O   0  0  0  0  0  0  0  0  0  0  0  0
   -2.1015   -2.6351    0.0000 C   0  0  0  0  0  0  0  0  0  0  0  0
   -3.0367   -3.8079    0.0000 C   0  0  0  0  0  0  0  0  0  0  0  0
   -3.0367   -1.4624    0.0000 C   0  0  0  0  0  0  0  0  0  0  0  0
   -4.3881   -2.1132    0.0000 O   0  0  0  0  0  0  0  0  0  0  0  0
   -5.6275   -1.2682    0.0000 C   0  0  0  0  0  0  0  0  0  0  0  0
   -5.5154    0.2276    0.0000 O   0  0  0  0  0  0  0  0  0  0  0  0
   -6.7548    1.0725    0.0000 C   0  0  0  0  0  0  0  0  0  0  0  0
   -6.6427    2.5684    0.0000 C   0  0  0  0  0  0  0  0  0  0  0  0
   -8.1062    0.4217    0.0000 C   0  0  0  0  0  0  0  0  0  0  0  0
   -8.2183   -1.0741    0.0000 C   0  0  0  0  0  0  0  0  0  0  0  0
   -9.5698   -1.7249    0.0000 N   0  0  0  0  0  0  0  0  0  0  0  0
  -10.8091   -0.8799    0.0000 C   0  0  0  0  0  0  0  0  0  0  0  0
   -9.6819   -3.2207    0.0000 C   0  0  0  0  0  0  0  0  0  0  0  0
   -6.9790   -1.9191    0.0000 C   0  0  0  0  0  0  0  0  0  0  0  0
   -7.0910   -3.4149    0.0000 O   0  0  0  0  0  0  0  0  0  0  0  0
   -3.3705    0.0000    0.0000 C   0  0  0  0  0  0  0  0  0  0  0  0
   -4.6098   -0.8450    0.0000 C   0  0  0  0  0  0  0  0  0  0  0  0
   -4.6098    0.8450    0.0000 O   0  0  0  0  0  0  0  0  0  0  0  0
   -3.0367    1.4624    0.0000 C   0  0  0  0  0  0  0  0  0  0  0  0
   -2.1015    2.6351    0.0000 C   0  0  0  0  0  0  0  0  0  0  0  0
   -3.0367    3.8079    0.0000 C   0  0  0  0  0  0  0  0  0  0  0  0
   -0.7500    3.2860    0.0000 C   0  0  0  0  0  0  0  0  0  0  0  0
   -1.0838    4.7484    0.0000 O   0  0  0  0  0  0  0  0  0  0  0  0
    0.7500    3.2860    0.0000 C   0  0  0  0  0  0  0  0  0  0  0  0
    1.0838    4.7484    0.0000 C   0  0  0  0  0  0  0  0  0  0  0  0
    2.1015    2.6351    0.0000 C   0  0  0  0  0  0  0  0  0  0  0  0
    3.0367    3.8079    0.0000 O   0  0  0  0  0  0  0  0  0  0  0  0
    3.0367    1.4624    0.0000 C   0  0  0  0  0  0  0  0  0  0  0  0
    3.7867    2.7614    0.0000 C   0  0  0  0  0  0  0  0  0  0  0  0
    4.5199    1.2388    0.0000 O   0  0  0  0  0  0  0  0  0  0  0  0
  1  2  1  0
  3  2  1  1
  3  4  1  0
  4  5  1  0
  5  6  2  0
  5  7  1  0
  7  8  1  6
  7  9  1  0
  9 10  1  1
 10 11  1  0
 11 12  1  0
 12 13  1  0
 13 14  1  1
 13 15  1  0
 15 16  1  0
 13 17  1  0
 17 18  1  6
 18 19  1  0
 19 20  2  0
 19 21  1  0
 21 22  1  0
 22 23  2  0
 22 24  1  0
 17 25  1  0
 25 26  1  1
 25 27  1  0
  9 28  1  0
 28 29  1  6
 28 30  1  0
 30 31  1  1
 31 32  1  0
 32 33  1  0
 33 34  1  0
 34 35  1  1
 34 36  1  0
 36 37  1  0
 37 38  1  1
 38 39  1  0
 38 40  1  0
 37 41  1  0
 41 42  1  6
 30 43  1  0
 43 44  1  1
 43 45  1  0
 43 46  1  0
 46 47  1  0
 47 48  1  1
 47 49  1  0
 49 50  2  0
 49 51  1  0
 51 52  1  6
 51 53  1  0
 53 54  1  1
 53 55  1  0
 55 56  1  1
 55 57  1  0
 55  3  1  0
 27 11  1  0
 41 32  1  0
M  END
>  <ChEMBL_IDs>  (124) 
CHEMBL382132

>  <target_organism>  (124) 
Hepatitis C virus,None

>  <target_molecule_pref_name>  (124) 
None

>  <# Known Targets>  (124) 
1.0

>  <Known Targets>  (124) 
CHEMBL354

>  <smiles>  (124) 
CC[C@H]1OC(=O)[C@H](C)[C@@H](OC2C[C@@](C)(OC)[C@@H](OC(=O)CC(=O)O)[C@H](C)O2)[C@H](C)[C@@H](OC2O[C@H](C)C[C@H](N(C)C)[C@H]2O)[C@](C)(O)C[C@@H](C)C(=O)[C@H](C)[C@@H](O)[C@]1(C)O

$$$$

     RDKit          2D

 57 59  0  0  0  0  0  0  0  0999 V2000
   16.4157   -9.6117    0.0000 C   0  0  0  0  0  0  0  0  0  0  0  0
   15.0299   -9.0377    0.0000 C   0  0  0  0  0  0  0  0  0  0  0  0
   13.8398   -9.9509    0.0000 C   0  0  0  0  0  0  0  0  0  0  0  0
   12.4540   -9.3768    0.0000 C   0  0  0  0  0  0  0  0  0  0  0  0
   12.2582   -7.8897    0.0000 O   0  0  0  0  0  0  0  0  0  0  0  0
   11.2640  -10.2900    0.0000 O   0  0  0  0  0  0  0  0  0  0  0  0
    9.8782   -9.7159    0.0000 C   0  0  0  0  0  0  0  0  0  0  0  0
    9.6824   -8.2288    0.0000 C   0  0  0  0  0  0  0  0  0  0  0  0
   10.8724   -7.3156    0.0000 C   0  0  0  0  0  0  0  0  0  0  0  0
    8.2966   -7.6548    0.0000 O   0  0  0  0  0  0  0  0  0  0  0  0
    7.1065   -8.5679    0.0000 C   0  0  0  0  0  0  0  0  0  0  0  0
    5.7207   -7.9939    0.0000 O   0  0  0  0  0  0  0  0  0  0  0  0
    5.5249   -6.5067    0.0000 C   0  0  0  0  0  0  0  0  0  0  0  0
    4.1391   -5.9327    0.0000 C   0  0  0  0  0  0  0  0  0  0  0  0
    2.9491   -6.8458    0.0000 C   0  0  0  0  0  0  0  0  0  0  0  0
    3.9433   -4.4455    0.0000 O   0  0  0  0  0  0  0  0  0  0  0  0
    5.1333   -3.5324    0.0000 C   0  0  0  0  0  0  0  0  0  0  0  0
    4.9376   -2.0452    0.0000 O   0  0  0  0  0  0  0  0  0  0  0  0
    3.5517   -1.4712    0.0000 C   0  0  0  0  0  0  0  0  0  0  0  0
    3.8444    0.0000    0.0000 C   0  0  0  0  0  0  0  0  0  0  0  0
    5.3444    0.0000    0.0000 O   0  0  0  0  0  0  0  0  0  0  0  0
    6.0944   -1.2990    0.0000 C   0  0  0  0  0  0  0  0  0  0  0  0
    3.5517    1.4712    0.0000 C   0  0  0  0  0  0  0  0  0  0  0  0
    4.9376    2.0452    0.0000 O   0  0  0  0  0  0  0  0  0  0  0  0
    2.7184    2.7184    0.0000 C   0  0  0  0  0  0  0  0  0  0  0  0
    1.4712    3.5517    0.0000 C   0  0  0  0  0  0  0  0  0  0  0  0
    2.0452    4.9376    0.0000 O   0  0  0  0  0  0  0  0  0  0  0  0
    0.0000    3.8444    0.0000 O   0  0  0  0  0  0  0  0  0  0  0  0
   -1.4712    3.5517    0.0000 C   0  0  0  0  0  0  0  0  0  0  0  0
   -2.0452    4.9376    0.0000 C   0  0  0  0  0  0  0  0  0  0  0  0
   -2.7184    2.7184    0.0000 C   0  0  0  0  0  0  0  0  0  0  0  0
   -3.5517    1.4712    0.0000 C   0  0  0  0  0  0  0  0  0  0  0  0
   -3.8444    0.0000    0.0000 C   0  0  0  0  0  0  0  0  0  0  0  0
   -3.5517   -1.4712    0.0000 C   0  0  0  0  0  0  0  0  0  0  0  0
   -2.7184   -2.7184    0.0000 C   0  0  0  0  0  0  0  0  0  0  0  0
   -1.4712   -3.5517    0.0000 C   0  0  0  0  0  0  0  0  0  0  0  0
   -2.0452   -4.9376    0.0000 O   0  0  0  0  0  0  0  0  0  0  0  0
   -3.5324   -5.1333    0.0000 C   0  0  0  0  0  0  0  0  0  0  0  0
   -4.1064   -6.5192    0.0000 C   0  0  0  0  0  0  0  0  0  0  0  0
   -4.4455   -3.9433    0.0000 O   0  0  0  0  0  0  0  0  0  0  0  0
   -0.0000   -3.8444    0.0000 C   0  0  0  0  0  0  0  0  0  0  0  0
   -0.0000   -5.3444    0.0000 C   0  0  0  0  0  0  0  0  0  0  0  0
    1.4712   -3.5517    0.0000 C   0  0  0  0  0  0  0  0  0  0  0  0
    2.7184   -2.7184    0.0000 C   0  0  0  0  0  0  0  0  0  0  0  0
    3.7790   -3.7790    0.0000 C   0  0  0  0  0  0  0  0  0  0  0  0
    3.3908   -5.2279    0.0000 C   0  0  0  0  0  0  0  0  0  0  0  0
    4.1633   -6.5137    0.0000 O   0  0  0  0  0  0  0  0  0  0  0  0
    6.5192   -4.1064    0.0000 C   0  0  0  0  0  0  0  0  0  0  0  0
    7.7092   -3.1933    0.0000 O   0  0  0  0  0  0  0  0  0  0  0  0
    6.7150   -5.5936    0.0000 C   0  0  0  0  0  0  0  0  0  0  0  0
    8.1008   -6.1676    0.0000 N   0  0  0  0  0  0  0  0  0  0  0  0
    9.2908   -5.2544    0.0000 C   0  0  0  0  0  0  0  0  0  0  0  0
    8.6506   -7.5632    0.0000 C   0  0  0  0  0  0  0  0  0  0  0  0
    7.3023  -10.0551    0.0000 C   0  0  0  0  0  0  0  0  0  0  0  0
    8.6881  -10.6291    0.0000 C   0  0  0  0  0  0  0  0  0  0  0  0
    7.8822  -11.8942    0.0000 C   0  0  0  0  0  0  0  0  0  0  0  0
    9.7941  -11.6425    0.0000 O   0  0  0  0  0  0  0  0  0  0  0  0
  1  2  1  0
  2  3  1  0
  3  4  1  0
  4  5  2  0
  4  6  1  0
  7  6  1  6
  7  8  1  0
  8  9  1  1
  8 10  1  0
 10 11  1  0
 11 12  1  6
 13 12  1  6
 13 14  1  0
 14 15  1  1
 14 16  1  0
 16 17  1  0
 17 18  1  1
 19 18  1  1
 19 20  1  0
 20 21  1  6
 21 22  1  0
 20 23  1  0
 23 24  1  1
 23 25  1  0
 25 26  1  0
 26 27  2  0
 26 28  1  0
 28 29  1  0
 29 30  1  1
 29 31  1  0
 31 32  1  0
 32 33  2  0
 33 34  1  0
 34 35  2  0
 35 36  1  0
 36 37  1  1
 37 38  1  0
 38 39  1  0
 38 40  2  0
 36 41  1  0
 41 42  1  1
 41 43  1  0
 43 44  1  0
 44 45  1  1
 45 46  1  0
 46 47  2  0
 17 48  1  0
 48 49  1  6
 48 50  1  0
 50 51  1  1
 51 52  1  0
 51 53  1  0
 11 54  1  0
 54 55  1  0
 55 56  1  1
 55 57  1  0
 55  7  1  0
 50 13  1  0
 44 19  1  0
M  END
>  <ChEMBL_IDs>  (125) 
CHEMBL3251866

>  <target_organism>  (125) 
None

>  <target_molecule_pref_name>  (125) 
None

>  <# Known Targets>  (125) 
1.0

>  <Known Targets>  (125) 
CHEMBL612545

>  <smiles>  (125) 
CCCC(=O)O[C@H]1[C@H](C)O[C@@H](O[C@@H]2[C@@H](C)O[C@@H](O[C@@H]3[C@@H](OC)[C@H](O)CC(=O)O[C@H](C)C/C=C/C=C/[C@H](OC(C)=O)[C@H](C)C[C@@H]3CC=O)[C@H](O)[C@H]2N(C)C)C[C@@]1(C)O

$$$$

     RDKit          2D

 56 58  0  0  0  0  0  0  0  0999 V2000
    5.6205   -1.2990    0.0000 C   0  0  0  0  0  0  0  0  0  0  0  0
    4.8705    0.0000    0.0000 C   0  0  0  0  0  0  0  0  0  0  0  0
    3.3705    0.0000    0.0000 C   0  0  0  0  0  0  0  0  0  0  0  0
    3.0367   -1.4624    0.0000 O   0  0  0  0  0  0  0  0  0  0  0  0
    2.1015   -2.6351    0.0000 C   0  0  0  0  0  0  0  0  0  0  0  0
    3.0367   -3.8079    0.0000 O   0  0  0  0  0  0  0  0  0  0  0  0
    0.7500   -3.2860    0.0000 C   0  0  0  0  0  0  0  0  0  0  0  0
    1.3600   -4.4903    0.0000 C   0  0  0  0  0  0  0  0  0  0  0  0
   -0.7500   -3.2860    0.0000 C   0  0  0  0  0  0  0  0  0  0  0  0
   -1.0838   -4.7484    0.0000 O   0  0  0  0  0  0  0  0  0  0  0  0
    0.0158   -5.7686    0.0000 C   0  0  0  0  0  0  0  0  0  0  0  0
   -0.3180   -7.2310    0.0000 C   0  0  0  0  0  0  0  0  0  0  0  0
    0.7816   -8.2513    0.0000 C   0  0  0  0  0  0  0  0  0  0  0  0
    1.4659   -9.5861    0.0000 C   0  0  0  0  0  0  0  0  0  0  0  0
   -0.4141   -9.1570    0.0000 O   0  0  0  0  0  0  0  0  0  0  0  0
   -0.2276  -10.6453    0.0000 C   0  0  0  0  0  0  0  0  0  0  0  0
    2.2150   -7.8091    0.0000 C   0  0  0  0  0  0  0  0  0  0  0  0
    3.3145   -8.8294    0.0000 O   0  0  0  0  0  0  0  0  0  0  0  0
    2.5487   -6.3467    0.0000 C   0  0  0  0  0  0  0  0  0  0  0  0
    3.9821   -5.9046    0.0000 C   0  0  0  0  0  0  0  0  0  0  0  0
    1.4492   -5.3265    0.0000 O   0  0  0  0  0  0  0  0  0  0  0  0
   -2.1015   -2.6351    0.0000 C   0  0  0  0  0  0  0  0  0  0  0  0
   -3.0367   -3.8079    0.0000 C   0  0  0  0  0  0  0  0  0  0  0  0
   -3.0367   -1.4624    0.0000 C   0  0  0  0  0  0  0  0  0  0  0  0
   -4.3881   -2.1132    0.0000 O   0  0  0  0  0  0  0  0  0  0  0  0
   -5.6275   -1.2682    0.0000 C   0  0  0  0  0  0  0  0  0  0  0  0
   -5.5154    0.2276    0.0000 O   0  0  0  0  0  0  0  0  0  0  0  0
   -6.7548    1.0725    0.0000 C   0  0  0  0  0  0  0  0  0  0  0  0
   -6.6427    2.5684    0.0000 C   0  0  0  0  0  0  0  0  0  0  0  0
   -8.1062    0.4217    0.0000 C   0  0  0  0  0  0  0  0  0  0  0  0
   -8.2183   -1.0741    0.0000 C   0  0  0  0  0  0  0  0  0  0  0  0
   -9.5698   -1.7249    0.0000 N   0  0  0  0  0  0  0  0  0  0  0  0
  -10.8091   -0.8799    0.0000 C   0  0  0  0  0  0  0  0  0  0  0  0
   -9.6819   -3.2207    0.0000 C   0  0  0  0  0  0  0  0  0  0  0  0
  -11.0333   -3.8715    0.0000 C   0  0  0  0  0  0  0  0  0  0  0  0
   -8.4425   -4.0657    0.0000 C   0  0  0  0  0  0  0  0  0  0  0  0
   -6.9790   -1.9191    0.0000 C   0  0  0  0  0  0  0  0  0  0  0  0
   -7.0910   -3.4149    0.0000 O   0  0  0  0  0  0  0  0  0  0  0  0
   -3.3705    0.0000    0.0000 C   0  0  0  0  0  0  0  0  0  0  0  0
   -4.6098   -0.8450    0.0000 C   0  0  0  0  0  0  0  0  0  0  0  0
   -4.6098    0.8450    0.0000 O   0  0  0  0  0  0  0  0  0  0  0  0
   -3.0367    1.4624    0.0000 C   0  0  0  0  0  0  0  0  0  0  0  0
   -2.1015    2.6351    0.0000 C   0  0  0  0  0  0  0  0  0  0  0  0
   -3.0367    3.8079    0.0000 C   0  0  0  0  0  0  0  0  0  0  0  0
   -0.7500    3.2860    0.0000 C   0  0  0  0  0  0  0  0  0  0  0  0
   -1.0838    4.7484    0.0000 O   0  0  0  0  0  0  0  0  0  0  0  0
    0.0158    5.7686    0.0000 C   0  0  0  0  0  0  0  0  0  0  0  0
   -0.3180    7.2310    0.0000 C   0  0  0  0  0  0  0  0  0  0  0  0
    0.7816    8.2513    0.0000 N   0  0  0  0  0  0  0  0  0  0  0  0
    0.7500    3.2860    0.0000 C   0  0  0  0  0  0  0  0  0  0  0  0
    1.0838    4.7484    0.0000 C   0  0  0  0  0  0  0  0  0  0  0  0
    2.1015    2.6351    0.0000 C   0  0  0  0  0  0  0  0  0  0  0  0
    3.0367    3.8079    0.0000 O   0  0  0  0  0  0  0  0  0  0  0  0
    3.0367    1.4624    0.0000 C   0  0  0  0  0  0  0  0  0  0  0  0
    3.7867    2.7614    0.0000 C   0  0  0  0  0  0  0  0  0  0  0  0
    4.5199    1.2388    0.0000 O   0  0  0  0  0  0  0  0  0  0  0  0
  1  2  1  0
  3  2  1  1
  3  4  1  0
  4  5  1  0
  5  6  2  0
  5  7  1  0
  7  8  1  6
  7  9  1  0
  9 10  1  1
 11 10  1  6
 11 12  1  0
 12 13  1  0
 13 14  1  1
 13 15  1  0
 15 16  1  0
 13 17  1  0
 17 18  1  6
 17 19  1  0
 19 20  1  1
 19 21  1  0
  9 22  1  0
 22 23  1  6
 22 24  1  0
 24 25  1  1
 26 25  1  1
 26 27  1  0
 27 28  1  0
 28 29  1  1
 28 30  1  0
 30 31  1  0
 31 32  1  1
 32 33  1  0
 32 34  1  0
 34 35  1  0
 34 36  1  0
 31 37  1  0
 37 38  1  6
 24 39  1  0
 39 40  1  1
 39 41  1  0
 39 42  1  0
 42 43  1  0
 43 44  1  1
 43 45  1  0
 45 46  1  6
 46 47  1  0
 47 48  1  0
 48 49  1  0
 45 50  1  0
 50 51  1  6
 50 52  1  0
 52 53  1  1
 52 54  1  0
 54 55  1  1
 54 56  1  0
 54  3  1  0
 21 11  1  0
 37 26  1  0
M  END
>  <ChEMBL_IDs>  (126) 
CHEMBL1269434

>  <target_organism>  (126) 
nan

>  <target_molecule_pref_name>  (126) 
None

>  <# Known Targets>  (126) 
1.0

>  <Known Targets>  (126) 
CHEMBL3879801

>  <smiles>  (126) 
CC[C@H]1OC(=O)[C@H](C)[C@@H](O[C@H]2C[C@@](C)(OC)[C@@H](O)[C@H](C)O2)[C@H](C)[C@@H](O[C@@H]2O[C@H](C)C[C@H](N(C)C(C)C)[C@H]2O)[C@](C)(O)C[C@@H](C)[C@H](OCCN)[C@H](C)[C@@H](O)[C@]1(C)O

$$$$

     RDKit          2D

 55 57  0  0  0  0  0  0  0  0999 V2000
    7.3573    1.2990    0.0000 C   0  0  0  0  0  0  0  0  0  0  0  0
    5.8573    1.2990    0.0000 C   0  0  0  0  0  0  0  0  0  0  0  0
    5.1073    0.0000    0.0000 C   0  0  0  0  0  0  0  0  0  0  0  0
    3.6073    0.0000    0.0000 N   0  0  0  0  0  0  0  0  0  0  0  0
    3.2954    1.4672    0.0000 C   0  0  0  0  0  0  0  0  0  0  0  0
    2.4138    2.6807    0.0000 C   0  0  0  0  0  0  0  0  0  0  0  0
    3.4175    3.7955    0.0000 C   0  0  0  0  0  0  0  0  0  0  0  0
    1.1147    3.4307    0.0000 C   0  0  0  0  0  0  0  0  0  0  0  0
   -0.3771    3.5875    0.0000 C   0  0  0  0  0  0  0  0  0  0  0  0
   -1.3412    4.7366    0.0000 C   0  0  0  0  0  0  0  0  0  0  0  0
    0.3271    4.9120    0.0000 O   0  0  0  0  0  0  0  0  0  0  0  0
    1.8262    4.9643    0.0000 C   0  0  0  0  0  0  0  0  0  0  0  0
   -1.8037    3.1240    0.0000 C   0  0  0  0  0  0  0  0  0  0  0  0
   -2.5537    4.4231    0.0000 O   0  0  0  0  0  0  0  0  0  0  0  0
   -1.8037    5.7221    0.0000 C   0  0  0  0  0  0  0  0  0  0  0  0
   -0.3037    5.7221    0.0000 O   0  0  0  0  0  0  0  0  0  0  0  0
    0.4463    7.0211    0.0000 C   0  0  0  0  0  0  0  0  0  0  0  0
    1.9463    7.0211    0.0000 C   0  0  0  0  0  0  0  0  0  0  0  0
   -0.3037    8.3202    0.0000 C   0  0  0  0  0  0  0  0  0  0  0  0
   -1.8037    8.3202    0.0000 C   0  0  0  0  0  0  0  0  0  0  0  0
   -2.5537    9.6192    0.0000 N   0  0  0  0  0  0  0  0  0  0  0  0
   -1.8037   10.9182    0.0000 C   0  0  0  0  0  0  0  0  0  0  0  0
   -4.0537    9.6192    0.0000 C   0  0  0  0  0  0  0  0  0  0  0  0
   -2.5537    7.0211    0.0000 C   0  0  0  0  0  0  0  0  0  0  0  0
   -4.0537    7.0211    0.0000 O   0  0  0  0  0  0  0  0  0  0  0  0
   -2.9184    2.1203    0.0000 C   0  0  0  0  0  0  0  0  0  0  0  0
   -4.1319    3.0020    0.0000 C   0  0  0  0  0  0  0  0  0  0  0  0
   -3.5285    0.7500    0.0000 C   0  0  0  0  0  0  0  0  0  0  0  0
   -4.9957    1.0619    0.0000 O   0  0  0  0  0  0  0  0  0  0  0  0
   -5.9994   -0.0528    0.0000 C   0  0  0  0  0  0  0  0  0  0  0  0
   -7.4666    0.2590    0.0000 C   0  0  0  0  0  0  0  0  0  0  0  0
   -8.4703   -0.8557    0.0000 C   0  0  0  0  0  0  0  0  0  0  0  0
   -9.7947   -1.5599    0.0000 C   0  0  0  0  0  0  0  0  0  0  0  0
   -9.3938    0.3263    0.0000 O   0  0  0  0  0  0  0  0  0  0  0  0
  -10.8792    0.1176    0.0000 C   0  0  0  0  0  0  0  0  0  0  0  0
   -8.0068   -2.2823    0.0000 C   0  0  0  0  0  0  0  0  0  0  0  0
   -9.0105   -3.3970    0.0000 O   0  0  0  0  0  0  0  0  0  0  0  0
   -6.5396   -2.5942    0.0000 C   0  0  0  0  0  0  0  0  0  0  0  0
   -6.0760   -4.0207    0.0000 C   0  0  0  0  0  0  0  0  0  0  0  0
   -5.5359   -1.4794    0.0000 O   0  0  0  0  0  0  0  0  0  0  0  0
   -3.5285   -0.7500    0.0000 C   0  0  0  0  0  0  0  0  0  0  0  0
   -4.7418   -1.3419    0.0000 C   0  0  0  0  0  0  0  0  0  0  0  0
   -2.9184   -2.1203    0.0000 C   0  0  0  0  0  0  0  0  0  0  0  0
   -4.1319   -3.0020    0.0000 O   0  0  0  0  0  0  0  0  0  0  0  0
   -1.8037   -3.1240    0.0000 O   0  0  0  0  0  0  0  0  0  0  0  0
   -0.3771   -3.5875    0.0000 C   0  0  0  0  0  0  0  0  0  0  0  0
   -0.5339   -5.0793    0.0000 C   0  0  0  0  0  0  0  0  0  0  0  0
   -1.9042   -5.6894    0.0000 C   0  0  0  0  0  0  0  0  0  0  0  0
    1.1147   -3.4307    0.0000 C   0  0  0  0  0  0  0  0  0  0  0  0
    2.2967   -4.3542    0.0000 C   0  0  0  0  0  0  0  0  0  0  0  0
    0.7013   -4.8726    0.0000 O   0  0  0  0  0  0  0  0  0  0  0  0
    2.4138   -2.6807    0.0000 C   0  0  0  0  0  0  0  0  0  0  0  0
    3.4175   -3.7955    0.0000 O   0  0  0  0  0  0  0  0  0  0  0  0
    3.2954   -1.4672    0.0000 C   0  0  0  0  0  0  0  0  0  0  0  0
    4.6658   -2.0773    0.0000 C   0  0  0  0  0  0  0  0  0  0  0  0
  1  2  1  0
  2  3  1  0
  3  4  1  0
  4  5  1  0
  5  6  1  0
  6  7  1  1
  6  8  1  0
  8  9  1  0
  9 10  1  1
  9 11  1  0
 11 12  1  0
  9 13  1  0
 13 14  1  1
 15 14  1  1
 15 16  1  0
 16 17  1  0
 17 18  1  1
 17 19  1  0
 19 20  1  0
 20 21  1  1
 21 22  1  0
 21 23  1  0
 20 24  1  0
 24 25  1  6
 13 26  1  0
 26 27  1  6
 26 28  1  0
 28 29  1  1
 30 29  1  6
 30 31  1  0
 31 32  1  0
 32 33  1  1
 32 34  1  0
 34 35  1  0
 32 36  1  0
 36 37  1  6
 36 38  1  0
 38 39  1  1
 38 40  1  0
 28 41  1  0
 41 42  1  6
 41 43  1  0
 43 44  2  0
 43 45  1  0
 45 46  1  0
 46 47  1  1
 47 48  1  0
 46 49  1  0
 49 50  1  1
 49 51  1  0
 49 52  1  0
 52 53  1  1
 52 54  1  0
 54 55  1  6
 54  4  1  0
 24 15  1  0
 40 30  1  0
M  END
>  <ChEMBL_IDs>  (127) 
CHEMBL1774295

>  <target_organism>  (127) 
Homo sapiens,None,Escherichia coli K-12

>  <target_molecule_pref_name>  (127) 
None

>  <# Known Targets>  (127) 
1.0

>  <Known Targets>  (127) 
CHEMBL612888

>  <smiles>  (127) 
CCCN1C[C@H](C)C[C@@](C)(OC)[C@H](O[C@@H]2O[C@H](C)C[C@H](N(C)C)[C@H]2O)[C@@H](C)[C@H](O[C@H]2C[C@@](C)(OC)[C@@H](O)[C@H](C)O2)[C@@H](C)C(=O)O[C@H](CC)[C@@](C)(O)[C@H](O)[C@H]1C

$$$$

     RDKit          2D

 57 59  0  0  0  0  0  0  0  0999 V2000
    8.1073    2.5981    0.0000 C   0  0  0  0  0  0  0  0  0  0  0  0
    7.3573    1.2990    0.0000 C   0  0  0  0  0  0  0  0  0  0  0  0
    5.8573    1.2990    0.0000 N   0  0  0  0  0  0  0  0  0  0  0  0
    5.1073    0.0000    0.0000 C   0  0  0  0  0  0  0  0  0  0  0  0
    5.8573   -1.2990    0.0000 O   0  0  0  0  0  0  0  0  0  0  0  0
    3.6073    0.0000    0.0000 N   0  0  0  0  0  0  0  0  0  0  0  0
    3.2954    1.4672    0.0000 C   0  0  0  0  0  0  0  0  0  0  0  0
    2.4138    2.6807    0.0000 C   0  0  0  0  0  0  0  0  0  0  0  0
    3.4175    3.7955    0.0000 C   0  0  0  0  0  0  0  0  0  0  0  0
    1.1147    3.4307    0.0000 C   0  0  0  0  0  0  0  0  0  0  0  0
   -0.3771    3.5875    0.0000 C   0  0  0  0  0  0  0  0  0  0  0  0
   -1.3412    4.7366    0.0000 C   0  0  0  0  0  0  0  0  0  0  0  0
    0.3271    4.9120    0.0000 O   0  0  0  0  0  0  0  0  0  0  0  0
    1.8262    4.9643    0.0000 C   0  0  0  0  0  0  0  0  0  0  0  0
   -1.8037    3.1240    0.0000 C   0  0  0  0  0  0  0  0  0  0  0  0
   -2.5537    4.4231    0.0000 O   0  0  0  0  0  0  0  0  0  0  0  0
   -1.8037    5.7221    0.0000 C   0  0  0  0  0  0  0  0  0  0  0  0
   -0.3037    5.7221    0.0000 O   0  0  0  0  0  0  0  0  0  0  0  0
    0.4463    7.0211    0.0000 C   0  0  0  0  0  0  0  0  0  0  0  0
    1.9463    7.0211    0.0000 C   0  0  0  0  0  0  0  0  0  0  0  0
   -0.3037    8.3202    0.0000 C   0  0  0  0  0  0  0  0  0  0  0  0
   -1.8037    8.3202    0.0000 C   0  0  0  0  0  0  0  0  0  0  0  0
   -2.5537    9.6192    0.0000 N   0  0  0  0  0  0  0  0  0  0  0  0
   -1.8037   10.9182    0.0000 C   0  0  0  0  0  0  0  0  0  0  0  0
   -4.0537    9.6192    0.0000 C   0  0  0  0  0  0  0  0  0  0  0  0
   -2.5537    7.0211    0.0000 C   0  0  0  0  0  0  0  0  0  0  0  0
   -4.0537    7.0211    0.0000 O   0  0  0  0  0  0  0  0  0  0  0  0
   -2.9184    2.1203    0.0000 C   0  0  0  0  0  0  0  0  0  0  0  0
   -4.1319    3.0020    0.0000 C   0  0  0  0  0  0  0  0  0  0  0  0
   -3.5285    0.7500    0.0000 C   0  0  0  0  0  0  0  0  0  0  0  0
   -4.9957    1.0619    0.0000 O   0  0  0  0  0  0  0  0  0  0  0  0
   -5.9994   -0.0528    0.0000 C   0  0  0  0  0  0  0  0  0  0  0  0
   -7.4666    0.2590    0.0000 C   0  0  0  0  0  0  0  0  0  0  0  0
   -8.4703   -0.8557    0.0000 C   0  0  0  0  0  0  0  0  0  0  0  0
   -9.7947   -1.5599    0.0000 C   0  0  0  0  0  0  0  0  0  0  0  0
   -9.3938    0.3263    0.0000 O   0  0  0  0  0  0  0  0  0  0  0  0
  -10.8792    0.1176    0.0000 C   0  0  0  0  0  0  0  0  0  0  0  0
   -8.0068   -2.2823    0.0000 C   0  0  0  0  0  0  0  0  0  0  0  0
   -9.0105   -3.3970    0.0000 O   0  0  0  0  0  0  0  0  0  0  0  0
   -6.5396   -2.5942    0.0000 C   0  0  0  0  0  0  0  0  0  0  0  0
   -6.0760   -4.0207    0.0000 C   0  0  0  0  0  0  0  0  0  0  0  0
   -5.5359   -1.4794    0.0000 O   0  0  0  0  0  0  0  0  0  0  0  0
   -3.5285   -0.7500    0.0000 C   0  0  0  0  0  0  0  0  0  0  0  0
   -4.7418   -1.3419    0.0000 C   0  0  0  0  0  0  0  0  0  0  0  0
   -2.9184   -2.1203    0.0000 C   0  0  0  0  0  0  0  0  0  0  0  0
   -4.1319   -3.0020    0.0000 O   0  0  0  0  0  0  0  0  0  0  0  0
   -1.8037   -3.1240    0.0000 O   0  0  0  0  0  0  0  0  0  0  0  0
   -0.3771   -3.5875    0.0000 C   0  0  0  0  0  0  0  0  0  0  0  0
   -0.5339   -5.0793    0.0000 C   0  0  0  0  0  0  0  0  0  0  0  0
   -1.9042   -5.6894    0.0000 C   0  0  0  0  0  0  0  0  0  0  0  0
    1.1147   -3.4307    0.0000 C   0  0  0  0  0  0  0  0  0  0  0  0
    2.2967   -4.3542    0.0000 C   0  0  0  0  0  0  0  0  0  0  0  0
    0.7013   -4.8726    0.0000 O   0  0  0  0  0  0  0  0  0  0  0  0
    2.4138   -2.6807    0.0000 C   0  0  0  0  0  0  0  0  0  0  0  0
    3.4175   -3.7955    0.0000 O   0  0  0  0  0  0  0  0  0  0  0  0
    3.2954   -1.4672    0.0000 C   0  0  0  0  0  0  0  0  0  0  0  0
    4.6658   -2.0773    0.0000 C   0  0  0  0  0  0  0  0  0  0  0  0
  1  2  1  0
  2  3  1  0
  3  4  1  0
  4  5  2  0
  4  6  1  0
  6  7  1  0
  7  8  1  0
  8  9  1  1
  8 10  1  0
 10 11  1  0
 11 12  1  1
 11 13  1  0
 13 14  1  0
 11 15  1  0
 15 16  1  1
 17 16  1  1
 17 18  1  0
 18 19  1  0
 19 20  1  1
 19 21  1  0
 21 22  1  0
 22 23  1  1
 23 24  1  0
 23 25  1  0
 22 26  1  0
 26 27  1  6
 15 28  1  0
 28 29  1  6
 28 30  1  0
 30 31  1  1
 32 31  1  6
 32 33  1  0
 33 34  1  0
 34 35  1  1
 34 36  1  0
 36 37  1  0
 34 38  1  0
 38 39  1  6
 38 40  1  0
 40 41  1  1
 40 42  1  0
 30 43  1  0
 43 44  1  6
 43 45  1  0
 45 46  2  0
 45 47  1  0
 47 48  1  0
 48 49  1  1
 49 50  1  0
 48 51  1  0
 51 52  1  1
 51 53  1  0
 51 54  1  0
 54 55  1  1
 54 56  1  0
 56 57  1  6
 56  6  1  0
 26 17  1  0
 42 32  1  0
M  END
>  <ChEMBL_IDs>  (128) 
CHEMBL1774298

>  <target_organism>  (128) 
Homo sapiens,None,Escherichia coli K-12

>  <target_molecule_pref_name>  (128) 
None

>  <# Known Targets>  (128) 
1.0

>  <Known Targets>  (128) 
CHEMBL612888

>  <smiles>  (128) 
CCNC(=O)N1C[C@H](C)C[C@@](C)(OC)[C@H](O[C@@H]2O[C@H](C)C[C@H](N(C)C)[C@H]2O)[C@@H](C)[C@H](O[C@H]2C[C@@](C)(OC)[C@@H](O)[C@H](C)O2)[C@@H](C)C(=O)O[C@H](CC)[C@@](C)(O)[C@H](O)[C@H]1C

$$$$

     RDKit          2D

 58 60  0  0  0  0  0  0  0  0999 V2000
    5.6205   -1.2990    0.0000 C   0  0  0  0  0  0  0  0  0  0  0  0
    4.8705    0.0000    0.0000 C   0  0  0  0  0  0  0  0  0  0  0  0
    3.3705    0.0000    0.0000 C   0  0  0  0  0  0  0  0  0  0  0  0
    3.0367   -1.4624    0.0000 O   0  0  0  0  0  0  0  0  0  0  0  0
    2.1015   -2.6351    0.0000 C   0  0  0  0  0  0  0  0  0  0  0  0
    3.0367   -3.8079    0.0000 O   0  0  0  0  0  0  0  0  0  0  0  0
    0.7500   -3.2860    0.0000 C   0  0  0  0  0  0  0  0  0  0  0  0
    1.3600   -4.4903    0.0000 C   0  0  0  0  0  0  0  0  0  0  0  0
   -0.7500   -3.2860    0.0000 C   0  0  0  0  0  0  0  0  0  0  0  0
   -1.0838   -4.7484    0.0000 O   0  0  0  0  0  0  0  0  0  0  0  0
    0.0158   -5.7686    0.0000 C   0  0  0  0  0  0  0  0  0  0  0  0
   -0.3180   -7.2310    0.0000 C   0  0  0  0  0  0  0  0  0  0  0  0
    0.7816   -8.2513    0.0000 C   0  0  0  0  0  0  0  0  0  0  0  0
    1.4659   -9.5861    0.0000 C   0  0  0  0  0  0  0  0  0  0  0  0
   -0.4141   -9.1570    0.0000 O   0  0  0  0  0  0  0  0  0  0  0  0
   -0.2276  -10.6453    0.0000 C   0  0  0  0  0  0  0  0  0  0  0  0
    2.2150   -7.8091    0.0000 C   0  0  0  0  0  0  0  0  0  0  0  0
    3.3145   -8.8294    0.0000 O   0  0  0  0  0  0  0  0  0  0  0  0
    2.5487   -6.3467    0.0000 C   0  0  0  0  0  0  0  0  0  0  0  0
    3.9821   -5.9046    0.0000 C   0  0  0  0  0  0  0  0  0  0  0  0
    1.4492   -5.3265    0.0000 O   0  0  0  0  0  0  0  0  0  0  0  0
   -2.1015   -2.6351    0.0000 C   0  0  0  0  0  0  0  0  0  0  0  0
   -3.0367   -3.8079    0.0000 C   0  0  0  0  0  0  0  0  0  0  0  0
   -3.0367   -1.4624    0.0000 C   0  0  0  0  0  0  0  0  0  0  0  0
   -4.3881   -2.1132    0.0000 O   0  0  0  0  0  0  0  0  0  0  0  0
   -5.6275   -1.2682    0.0000 C   0  0  0  0  0  0  0  0  0  0  0  0
   -5.5154    0.2276    0.0000 O   0  0  0  0  0  0  0  0  0  0  0  0
   -6.7548    1.0725    0.0000 C   0  0  0  0  0  0  0  0  0  0  0  0
   -6.6427    2.5684    0.0000 C   0  0  0  0  0  0  0  0  0  0  0  0
   -8.1062    0.4217    0.0000 C   0  0  0  0  0  0  0  0  0  0  0  0
   -8.2183   -1.0741    0.0000 C   0  0  0  0  0  0  0  0  0  0  0  0
   -9.5698   -1.7249    0.0000 N   0  0  0  0  0  0  0  0  0  0  0  0
  -10.8091   -0.8799    0.0000 C   0  0  0  0  0  0  0  0  0  0  0  0
   -9.6819   -3.2207    0.0000 C   0  0  0  0  0  0  0  0  0  0  0  0
   -6.9790   -1.9191    0.0000 C   0  0  0  0  0  0  0  0  0  0  0  0
   -7.0910   -3.4149    0.0000 O   0  0  0  0  0  0  0  0  0  0  0  0
   -3.3705    0.0000    0.0000 C   0  0  0  0  0  0  0  0  0  0  0  0
   -4.6098   -0.8450    0.0000 C   0  0  0  0  0  0  0  0  0  0  0  0
   -4.6098    0.8450    0.0000 O   0  0  0  0  0  0  0  0  0  0  0  0
   -3.0367    1.4624    0.0000 C   0  0  0  0  0  0  0  0  0  0  0  0
   -2.1015    2.6351    0.0000 C   0  0  0  0  0  0  0  0  0  0  0  0
   -3.0367    3.8079    0.0000 C   0  0  0  0  0  0  0  0  0  0  0  0
   -0.7500    3.2860    0.0000 C   0  0  0  0  0  0  0  0  0  0  0  0
   -1.0838    4.7484    0.0000 N   0  0  0  0  0  0  0  0  0  0  0  0
    0.0158    5.7686    0.0000 O   0  0  0  0  0  0  0  0  0  0  0  0
   -0.3180    7.2310    0.0000 C   0  0  0  0  0  0  0  0  0  0  0  0
    0.7816    8.2513    0.0000 O   0  0  0  0  0  0  0  0  0  0  0  0
    0.4478    9.7137    0.0000 C   0  0  0  0  0  0  0  0  0  0  0  0
    1.5474   10.7339    0.0000 C   0  0  0  0  0  0  0  0  0  0  0  0
    1.2136   12.1963    0.0000 O   0  0  0  0  0  0  0  0  0  0  0  0
    2.3132   13.2166    0.0000 C   0  0  0  0  0  0  0  0  0  0  0  0
    0.7500    3.2860    0.0000 C   0  0  0  0  0  0  0  0  0  0  0  0
    1.0838    4.7484    0.0000 C   0  0  0  0  0  0  0  0  0  0  0  0
    2.1015    2.6351    0.0000 C   0  0  0  0  0  0  0  0  0  0  0  0
    3.0367    3.8079    0.0000 O   0  0  0  0  0  0  0  0  0  0  0  0
    3.0367    1.4624    0.0000 C   0  0  0  0  0  0  0  0  0  0  0  0
    3.7867    2.7614    0.0000 C   0  0  0  0  0  0  0  0  0  0  0  0
    4.5199    1.2388    0.0000 O   0  0  0  0  0  0  0  0  0  0  0  0
  1  2  1  0
  2  3  1  0
  3  4  1  0
  4  5  1  0
  5  6  2  0
  5  7  1  0
  7  8  1  0
  7  9  1  0
  9 10  1  0
 10 11  1  0
 11 12  1  0
 12 13  1  0
 13 14  1  1
 13 15  1  0
 15 16  1  0
 13 17  1  0
 17 18  1  0
 17 19  1  0
 19 20  1  0
 19 21  1  0
  9 22  1  0
 22 23  1  0
 22 24  1  0
 24 25  1  0
 26 25  1  1
 26 27  1  0
 27 28  1  0
 28 29  1  0
 28 30  1  0
 30 31  1  0
 31 32  1  0
 32 33  1  0
 32 34  1  0
 31 35  1  0
 35 36  1  0
 24 37  1  0
 37 38  1  1
 37 39  1  0
 37 40  1  0
 40 41  1  0
 41 42  1  0
 41 43  1  0
 43 44  2  3
 44 45  1  0
 45 46  1  0
 46 47  1  0
 47 48  1  0
 48 49  1  0
 49 50  1  0
 50 51  1  0
 43 52  1  0
 52 53  1  0
 52 54  1  0
 54 55  1  0
 54 56  1  0
 56 57  1  1
 56 58  1  0
 56  3  1  0
 21 11  1  0
 35 26  1  0
M  END
>  <ChEMBL_IDs>  (129) 
CHEMBL1512198

>  <target_organism>  (129) 
None

>  <target_molecule_pref_name>  (129) 
None

>  <# Known Targets>  (129) 
1.0

>  <Known Targets>  (129) 
CHEMBL2026

>  <smiles>  (129) 
CCC1OC(=O)C(C)C(OC2C[C@@](C)(OC)C(O)C(C)O2)C(C)C(O[C@@H]2OC(C)CC(N(C)C)C2O)[C@](C)(O)CC(C)C(=NOCOCCOC)C(C)C(O)[C@]1(C)O

$$$$

     RDKit          2D

 58 60  0  0  0  0  0  0  0  0999 V2000
    5.6205   -1.2990    0.0000 C   0  0  0  0  0  0  0  0  0  0  0  0
    4.8705    0.0000    0.0000 C   0  0  0  0  0  0  0  0  0  0  0  0
    3.3705    0.0000    0.0000 C   0  0  0  0  0  0  0  0  0  0  0  0
    3.0367   -1.4624    0.0000 O   0  0  0  0  0  0  0  0  0  0  0  0
    2.1015   -2.6351    0.0000 C   0  0  0  0  0  0  0  0  0  0  0  0
    3.0367   -3.8079    0.0000 O   0  0  0  0  0  0  0  0  0  0  0  0
    0.7500   -3.2860    0.0000 C   0  0  0  0  0  0  0  0  0  0  0  0
    1.3600   -4.4903    0.0000 C   0  0  0  0  0  0  0  0  0  0  0  0
   -0.7500   -3.2860    0.0000 C   0  0  0  0  0  0  0  0  0  0  0  0
   -1.0838   -4.7484    0.0000 O   0  0  0  0  0  0  0  0  0  0  0  0
    0.0158   -5.7686    0.0000 C   0  0  0  0  0  0  0  0  0  0  0  0
   -0.3180   -7.2310    0.0000 C   0  0  0  0  0  0  0  0  0  0  0  0
    0.7816   -8.2513    0.0000 C   0  0  0  0  0  0  0  0  0  0  0  0
    1.4659   -9.5861    0.0000 C   0  0  0  0  0  0  0  0  0  0  0  0
   -0.4141   -9.1570    0.0000 O   0  0  0  0  0  0  0  0  0  0  0  0
   -0.2276  -10.6453    0.0000 C   0  0  0  0  0  0  0  0  0  0  0  0
    2.2150   -7.8091    0.0000 C   0  0  0  0  0  0  0  0  0  0  0  0
    3.3145   -8.8294    0.0000 O   0  0  0  0  0  0  0  0  0  0  0  0
    2.5487   -6.3467    0.0000 C   0  0  0  0  0  0  0  0  0  0  0  0
    3.9821   -5.9046    0.0000 C   0  0  0  0  0  0  0  0  0  0  0  0
    1.4492   -5.3265    0.0000 O   0  0  0  0  0  0  0  0  0  0  0  0
   -2.1015   -2.6351    0.0000 C   0  0  0  0  0  0  0  0  0  0  0  0
   -3.0367   -3.8079    0.0000 C   0  0  0  0  0  0  0  0  0  0  0  0
   -3.0367   -1.4624    0.0000 C   0  0  0  0  0  0  0  0  0  0  0  0
   -4.3881   -2.1132    0.0000 O   0  0  0  0  0  0  0  0  0  0  0  0
   -5.6275   -1.2682    0.0000 C   0  0  0  0  0  0  0  0  0  0  0  0
   -5.5154    0.2276    0.0000 O   0  0  0  0  0  0  0  0  0  0  0  0
   -6.7548    1.0725    0.0000 C   0  0  0  0  0  0  0  0  0  0  0  0
   -6.6427    2.5684    0.0000 C   0  0  0  0  0  0  0  0  0  0  0  0
   -8.1062    0.4217    0.0000 C   0  0  0  0  0  0  0  0  0  0  0  0
   -8.2183   -1.0741    0.0000 C   0  0  0  0  0  0  0  0  0  0  0  0
   -9.5698   -1.7249    0.0000 N   0  0  0  0  0  0  0  0  0  0  0  0
  -10.8091   -0.8799    0.0000 C   0  0  0  0  0  0  0  0  0  0  0  0
   -9.6819   -3.2207    0.0000 C   0  0  0  0  0  0  0  0  0  0  0  0
   -6.9790   -1.9191    0.0000 C   0  0  0  0  0  0  0  0  0  0  0  0
   -7.0910   -3.4149    0.0000 O   0  0  0  0  0  0  0  0  0  0  0  0
   -3.3705    0.0000    0.0000 C   0  0  0  0  0  0  0  0  0  0  0  0
   -4.6098   -0.8450    0.0000 C   0  0  0  0  0  0  0  0  0  0  0  0
   -4.6098    0.8450    0.0000 O   0  0  0  0  0  0  0  0  0  0  0  0
   -3.0367    1.4624    0.0000 C   0  0  0  0  0  0  0  0  0  0  0  0
   -2.1015    2.6351    0.0000 C   0  0  0  0  0  0  0  0  0  0  0  0
   -3.0367    3.8079    0.0000 C   0  0  0  0  0  0  0  0  0  0  0  0
   -0.7500    3.2860    0.0000 C   0  0  0  0  0  0  0  0  0  0  0  0
   -1.0838    4.7484    0.0000 N   0  0  0  0  0  0  0  0  0  0  0  0
    0.0158    5.7686    0.0000 O   0  0  0  0  0  0  0  0  0  0  0  0
   -0.3180    7.2310    0.0000 C   0  0  0  0  0  0  0  0  0  0  0  0
    0.7816    8.2513    0.0000 O   0  0  0  0  0  0  0  0  0  0  0  0
    0.4478    9.7137    0.0000 C   0  0  0  0  0  0  0  0  0  0  0  0
    1.5474   10.7339    0.0000 C   0  0  0  0  0  0  0  0  0  0  0  0
    1.2136   12.1963    0.0000 O   0  0  0  0  0  0  0  0  0  0  0  0
    2.3132   13.2166    0.0000 C   0  0  0  0  0  0  0  0  0  0  0  0
    0.7500    3.2860    0.0000 C   0  0  0  0  0  0  0  0  0  0  0  0
    1.0838    4.7484    0.0000 C   0  0  0  0  0  0  0  0  0  0  0  0
    2.1015    2.6351    0.0000 C   0  0  0  0  0  0  0  0  0  0  0  0
    3.0367    3.8079    0.0000 O   0  0  0  0  0  0  0  0  0  0  0  0
    3.0367    1.4624    0.0000 C   0  0  0  0  0  0  0  0  0  0  0  0
    3.7867    2.7614    0.0000 C   0  0  0  0  0  0  0  0  0  0  0  0
    4.5199    1.2388    0.0000 O   0  0  0  0  0  0  0  0  0  0  0  0
  1  2  1  0
  3  2  1  1
  3  4  1  0
  4  5  1  0
  5  6  2  0
  5  7  1  0
  7  8  1  6
  7  9  1  0
  9 10  1  1
 11 10  1  6
 11 12  1  0
 12 13  1  0
 13 14  1  1
 13 15  1  0
 15 16  1  0
 13 17  1  0
 17 18  1  6
 17 19  1  0
 19 20  1  1
 19 21  1  0
  9 22  1  0
 22 23  1  6
 22 24  1  0
 24 25  1  1
 26 25  1  1
 26 27  1  0
 27 28  1  0
 28 29  1  1
 28 30  1  0
 30 31  1  0
 31 32  1  1
 32 33  1  0
 32 34  1  0
 31 35  1  0
 35 36  1  6
 24 37  1  0
 37 38  1  1
 37 39  1  0
 37 40  1  0
 40 41  1  0
 41 42  1  1
 41 43  1  0
 43 44  2  3
 44 45  1  0
 45 46  1  0
 46 47  1  0
 47 48  1  0
 48 49  1  0
 49 50  1  0
 50 51  1  0
 43 52  1  0
 52 53  1  6
 52 54  1  0
 54 55  1  1
 54 56  1  0
 56 57  1  1
 56 58  1  0
 56  3  1  0
 21 11  1  0
 35 26  1  0
M  END
>  <ChEMBL_IDs>  (130) 
CHEMBL1476500

>  <target_organism>  (130) 
None

>  <target_molecule_pref_name>  (130) 
None

>  <# Known Targets>  (130) 
1.0

>  <Known Targets>  (130) 
CHEMBL1293303

>  <smiles>  (130) 
CC[C@H]1OC(=O)[C@H](C)[C@@H](O[C@H]2C[C@@](C)(OC)[C@@H](O)[C@H](C)O2)[C@H](C)[C@@H](O[C@@H]2O[C@H](C)C[C@H](N(C)C)[C@H]2O)[C@](C)(O)C[C@@H](C)C(=NOCOCCOC)[C@H](C)[C@@H](O)[C@]1(C)O

$$$$

     RDKit          2D

 58 60  0  0  0  0  0  0  0  0999 V2000
    5.6205   -1.2990    0.0000 C   0  0  0  0  0  0  0  0  0  0  0  0
    4.8705    0.0000    0.0000 C   0  0  0  0  0  0  0  0  0  0  0  0
    3.3705    0.0000    0.0000 C   0  0  0  0  0  0  0  0  0  0  0  0
    3.0367   -1.4624    0.0000 O   0  0  0  0  0  0  0  0  0  0  0  0
    2.1015   -2.6351    0.0000 C   0  0  0  0  0  0  0  0  0  0  0  0
    3.0367   -3.8079    0.0000 O   0  0  0  0  0  0  0  0  0  0  0  0
    0.7500   -3.2860    0.0000 C   0  0  0  0  0  0  0  0  0  0  0  0
    1.3600   -4.4903    0.0000 C   0  0  0  0  0  0  0  0  0  0  0  0
   -0.7500   -3.2860    0.0000 C   0  0  0  0  0  0  0  0  0  0  0  0
   -1.0838   -4.7484    0.0000 O   0  0  0  0  0  0  0  0  0  0  0  0
    0.0158   -5.7686    0.0000 C   0  0  0  0  0  0  0  0  0  0  0  0
   -0.3180   -7.2310    0.0000 C   0  0  0  0  0  0  0  0  0  0  0  0
    0.7816   -8.2513    0.0000 C   0  0  0  0  0  0  0  0  0  0  0  0
    1.4659   -9.5861    0.0000 C   0  0  0  0  0  0  0  0  0  0  0  0
   -0.4141   -9.1570    0.0000 O   0  0  0  0  0  0  0  0  0  0  0  0
   -0.2276  -10.6453    0.0000 C   0  0  0  0  0  0  0  0  0  0  0  0
    2.2150   -7.8091    0.0000 C   0  0  0  0  0  0  0  0  0  0  0  0
    3.3145   -8.8294    0.0000 O   0  0  0  0  0  0  0  0  0  0  0  0
    2.5487   -6.3467    0.0000 C   0  0  0  0  0  0  0  0  0  0  0  0
    3.9821   -5.9046    0.0000 C   0  0  0  0  0  0  0  0  0  0  0  0
    1.4492   -5.3265    0.0000 O   0  0  0  0  0  0  0  0  0  0  0  0
   -2.1015   -2.6351    0.0000 C   0  0  0  0  0  0  0  0  0  0  0  0
   -3.0367   -3.8079    0.0000 C   0  0  0  0  0  0  0  0  0  0  0  0
   -3.0367   -1.4624    0.0000 C   0  0  0  0  0  0  0  0  0  0  0  0
   -4.3881   -2.1132    0.0000 O   0  0  0  0  0  0  0  0  0  0  0  0
   -5.6275   -1.2682    0.0000 C   0  0  0  0  0  0  0  0  0  0  0  0
   -5.5154    0.2276    0.0000 O   0  0  0  0  0  0  0  0  0  0  0  0
   -6.7548    1.0725    0.0000 C   0  0  0  0  0  0  0  0  0  0  0  0
   -6.6427    2.5684    0.0000 C   0  0  0  0  0  0  0  0  0  0  0  0
   -8.1062    0.4217    0.0000 C   0  0  0  0  0  0  0  0  0  0  0  0
   -8.2183   -1.0741    0.0000 C   0  0  0  0  0  0  0  0  0  0  0  0
   -9.5698   -1.7249    0.0000 N   0  0  0  0  0  0  0  0  0  0  0  0
  -10.8091   -0.8799    0.0000 C   0  0  0  0  0  0  0  0  0  0  0  0
   -9.6819   -3.2207    0.0000 C   0  0  0  0  0  0  0  0  0  0  0  0
   -6.9790   -1.9191    0.0000 C   0  0  0  0  0  0  0  0  0  0  0  0
   -7.0910   -3.4149    0.0000 O   0  0  0  0  0  0  0  0  0  0  0  0
   -3.3705    0.0000    0.0000 C   0  0  0  0  0  0  0  0  0  0  0  0
   -4.6098   -0.8450    0.0000 C   0  0  0  0  0  0  0  0  0  0  0  0
   -4.6098    0.8450    0.0000 O   0  0  0  0  0  0  0  0  0  0  0  0
   -3.0367    1.4624    0.0000 C   0  0  0  0  0  0  0  0  0  0  0  0
   -2.1015    2.6351    0.0000 C   0  0  0  0  0  0  0  0  0  0  0  0
   -3.0367    3.8079    0.0000 C   0  0  0  0  0  0  0  0  0  0  0  0
   -0.7500    3.2860    0.0000 C   0  0  0  0  0  0  0  0  0  0  0  0
   -1.0838    4.7484    0.0000 N   0  0  0  0  0  0  0  0  0  0  0  0
    0.0158    5.7686    0.0000 O   0  0  0  0  0  0  0  0  0  0  0  0
   -0.3180    7.2310    0.0000 C   0  0  0  0  0  0  0  0  0  0  0  0
    0.7816    8.2513    0.0000 O   0  0  0  0  0  0  0  0  0  0  0  0
    0.4478    9.7137    0.0000 C   0  0  0  0  0  0  0  0  0  0  0  0
    1.5474   10.7339    0.0000 C   0  0  0  0  0  0  0  0  0  0  0  0
    1.2136   12.1963    0.0000 O   0  0  0  0  0  0  0  0  0  0  0  0
    2.3132   13.2166    0.0000 C   0  0  0  0  0  0  0  0  0  0  0  0
    0.7500    3.2860    0.0000 C   0  0  0  0  0  0  0  0  0  0  0  0
    1.0838    4.7484    0.0000 C   0  0  0  0  0  0  0  0  0  0  0  0
    2.1015    2.6351    0.0000 C   0  0  0  0  0  0  0  0  0  0  0  0
    3.0367    3.8079    0.0000 O   0  0  0  0  0  0  0  0  0  0  0  0
    3.0367    1.4624    0.0000 C   0  0  0  0  0  0  0  0  0  0  0  0
    3.7867    2.7614    0.0000 C   0  0  0  0  0  0  0  0  0  0  0  0
    4.5199    1.2388    0.0000 O   0  0  0  0  0  0  0  0  0  0  0  0
  1  2  1  0
  2  3  1  0
  3  4  1  0
  4  5  1  0
  5  6  2  0
  5  7  1  0
  7  8  1  0
  7  9  1  0
  9 10  1  0
 10 11  1  0
 11 12  1  0
 12 13  1  0
 13 14  1  0
 13 15  1  0
 15 16  1  0
 13 17  1  0
 17 18  1  0
 17 19  1  0
 19 20  1  0
 19 21  1  0
  9 22  1  0
 22 23  1  0
 22 24  1  0
 24 25  1  0
 25 26  1  0
 26 27  1  0
 27 28  1  0
 28 29  1  0
 28 30  1  0
 30 31  1  0
 31 32  1  0
 32 33  1  0
 32 34  1  0
 31 35  1  0
 35 36  1  0
 24 37  1  0
 37 38  1  0
 37 39  1  0
 37 40  1  0
 40 41  1  0
 41 42  1  0
 41 43  1  0
 43 44  2  0
 44 45  1  0
 45 46  1  0
 46 47  1  0
 47 48  1  0
 48 49  1  0
 49 50  1  0
 50 51  1  0
 43 52  1  0
 52 53  1  0
 52 54  1  0
 54 55  1  0
 54 56  1  0
 56 57  1  0
 56 58  1  0
 56  3  1  0
 21 11  1  0
 35 26  1  0
M  END
>  <ChEMBL_IDs>  (131) 
CHEMBL1671888

>  <target_organism>  (131) 
None

>  <target_molecule_pref_name>  (131) 
None

>  <# Known Targets>  (131) 
1.0

>  <Known Targets>  (131) 
CHEMBL240

>  <smiles>  (131) 
CCC1OC(=O)C(C)C(OC2CC(C)(OC)C(O)C(C)O2)C(C)C(OC2OC(C)CC(N(C)C)C2O)C(C)(O)CC(C)/C(=N/OCOCCOC)C(C)C(O)C1(C)O

$$$$

     RDKit          2D

 52 54  0  0  0  0  0  0  0  0999 V2000
    6.0944   -1.2990    0.0000 C   0  0  0  0  0  0  0  0  0  0  0  0
    5.3444    0.0000    0.0000 O   0  0  0  0  0  0  0  0  0  0  0  0
    3.8444    0.0000    0.0000 C   0  0  0  0  0  0  0  0  0  0  0  0
    3.5517   -1.4712    0.0000 C   0  0  0  0  0  0  0  0  0  0  0  0
    4.9376   -2.0452    0.0000 O   0  0  0  0  0  0  0  0  0  0  0  0
    5.1333   -3.5324    0.0000 C   0  0  0  0  0  0  0  0  0  0  0  0
    3.9433   -4.4455    0.0000 O   0  0  0  0  0  0  0  0  0  0  0  0
    4.1391   -5.9327    0.0000 C   0  0  0  0  0  0  0  0  0  0  0  0
    2.9491   -6.8458    0.0000 C   0  0  0  0  0  0  0  0  0  0  0  0
    5.5249   -6.5067    0.0000 C   0  0  0  0  0  0  0  0  0  0  0  0
    5.7207   -7.9939    0.0000 O   0  0  0  0  0  0  0  0  0  0  0  0
    4.5307   -8.9070    0.0000 C   0  0  0  0  0  0  0  0  0  0  0  0
    3.1449   -8.3330    0.0000 C   0  0  0  0  0  0  0  0  0  0  0  0
    1.9548   -9.2461    0.0000 C   0  0  0  0  0  0  0  0  0  0  0  0
    0.5243   -9.6972    0.0000 C   0  0  0  0  0  0  0  0  0  0  0  0
    1.2622   -7.9156    0.0000 O   0  0  0  0  0  0  0  0  0  0  0  0
    2.1506  -10.7333    0.0000 C   0  0  0  0  0  0  0  0  0  0  0  0
    0.9606  -11.6464    0.0000 O   0  0  0  0  0  0  0  0  0  0  0  0
    3.5364  -11.3073    0.0000 C   0  0  0  0  0  0  0  0  0  0  0  0
    3.7322  -12.7945    0.0000 C   0  0  0  0  0  0  0  0  0  0  0  0
    4.7265  -10.3942    0.0000 O   0  0  0  0  0  0  0  0  0  0  0  0
    6.7150   -5.5936    0.0000 C   0  0  0  0  0  0  0  0  0  0  0  0
    8.1008   -6.1676    0.0000 N   0  0  0  0  0  0  0  0  0  0  0  0
    8.2966   -7.6548    0.0000 C   0  0  0  0  0  0  0  0  0  0  0  0
    9.2908   -5.2544    0.0000 C   0  0  0  0  0  0  0  0  0  0  0  0
    6.5192   -4.1064    0.0000 C   0  0  0  0  0  0  0  0  0  0  0  0
    7.7092   -3.1933    0.0000 O   0  0  0  0  0  0  0  0  0  0  0  0
    2.7184   -2.7184    0.0000 C   0  0  0  0  0  0  0  0  0  0  0  0
    3.7790   -3.7790    0.0000 C   0  0  0  0  0  0  0  0  0  0  0  0
    3.3908   -5.2279    0.0000 C   0  0  0  0  0  0  0  0  0  0  0  0
    4.1633   -6.5137    0.0000 O   0  0  0  0  0  0  0  0  0  0  0  0
    1.4712   -3.5517    0.0000 C   0  0  0  0  0  0  0  0  0  0  0  0
   -0.0000   -3.8444    0.0000 C   0  0  0  0  0  0  0  0  0  0  0  0
   -0.0000   -5.3444    0.0000 C   0  0  0  0  0  0  0  0  0  0  0  0
   -1.4712   -3.5517    0.0000 C   0  0  0  0  0  0  0  0  0  0  0  0
   -2.0452   -4.9376    0.0000 O   0  0  0  0  0  0  0  0  0  0  0  0
   -2.7184   -2.7184    0.0000 C   0  0  0  0  0  0  0  0  0  0  0  0
   -3.5517   -1.4712    0.0000 C   0  0  0  0  0  0  0  0  0  0  0  0
   -3.8444    0.0000    0.0000 C   0  0  0  0  0  0  0  0  0  0  0  0
   -3.5517    1.4712    0.0000 C   0  0  0  0  0  0  0  0  0  0  0  0
   -2.7184    2.7184    0.0000 C   0  0  0  0  0  0  0  0  0  0  0  0
   -1.4712    3.5517    0.0000 C   0  0  0  0  0  0  0  0  0  0  0  0
   -2.0452    4.9376    0.0000 C   0  0  0  0  0  0  0  0  0  0  0  0
    0.0000    3.8444    0.0000 O   0  0  0  0  0  0  0  0  0  0  0  0
    1.4712    3.5517    0.0000 C   0  0  0  0  0  0  0  0  0  0  0  0
    2.0452    4.9376    0.0000 O   0  0  0  0  0  0  0  0  0  0  0  0
    2.7184    2.7184    0.0000 C   0  0  0  0  0  0  0  0  0  0  0  0
    3.5517    1.4712    0.0000 C   0  0  0  0  0  0  0  0  0  0  0  0
    4.9376    2.0452    0.0000 O   0  0  0  0  0  0  0  0  0  0  0  0
    6.1276    1.1321    0.0000 C   0  0  0  0  0  0  0  0  0  0  0  0
    7.5134    1.7061    0.0000 C   0  0  0  0  0  0  0  0  0  0  0  0
    6.2975   -0.3583    0.0000 O   0  0  0  0  0  0  0  0  0  0  0  0
  1  2  1  0
  3  2  1  6
  3  4  1  0
  4  5  1  1
  6  5  1  1
  6  7  1  0
  7  8  1  0
  8  9  1  1
  8 10  1  0
 10 11  1  6
 12 11  1  6
 12 13  1  0
 13 14  1  0
 14 15  1  1
 14 16  1  0
 14 17  1  0
 17 18  1  6
 17 19  1  0
 19 20  1  1
 19 21  1  0
 10 22  1  0
 22 23  1  1
 23 24  1  0
 23 25  1  0
 22 26  1  0
 26 27  1  6
  4 28  1  0
 28 29  1  1
 29 30  1  0
 30 31  2  0
 28 32  1  0
 32 33  1  0
 33 34  1  1
 33 35  1  0
 35 36  1  1
 35 37  1  0
 37 38  2  0
 38 39  1  0
 39 40  2  0
 40 41  1  0
 41 42  1  0
 42 43  1  1
 42 44  1  0
 44 45  1  0
 45 46  2  0
 45 47  1  0
 47 48  1  0
 48 49  1  1
 49 50  1  0
 50 51  1  0
 50 52  2  0
 48  3  1  0
 26  6  1  0
 21 12  1  0
M  END
>  <ChEMBL_IDs>  (132) 
CHEMBL3251856

>  <target_organism>  (132) 
None

>  <target_molecule_pref_name>  (132) 
None

>  <# Known Targets>  (132) 
1.0

>  <Known Targets>  (132) 
CHEMBL612545

>  <smiles>  (132) 
CO[C@@H]1[C@@H](O[C@@H]2O[C@H](C)[C@@H](O[C@H]3C[C@@](C)(O)[C@@H](O)[C@H](C)O3)[C@H](N(C)C)[C@H]2O)[C@@H](CC=O)C[C@@H](C)[C@@H](O)/C=C/C=C/C[C@@H](C)OC(=O)C[C@H]1OC(C)=O

$$$$

     RDKit          2D

 57 59  0  0  0  0  0  0  0  0999 V2000
    5.6205   -1.2990    0.0000 C   0  0  0  0  0  0  0  0  0  0  0  0
    4.8705    0.0000    0.0000 C   0  0  0  0  0  0  0  0  0  0  0  0
    3.3705    0.0000    0.0000 C   0  0  0  0  0  0  0  0  0  0  0  0
    3.0367   -1.4624    0.0000 O   0  0  0  0  0  0  0  0  0  0  0  0
    2.1015   -2.6351    0.0000 C   0  0  0  0  0  0  0  0  0  0  0  0
    3.0367   -3.8079    0.0000 O   0  0  0  0  0  0  0  0  0  0  0  0
    0.7500   -3.2860    0.0000 C   0  0  0  0  0  0  0  0  0  0  0  0
    1.3600   -4.4903    0.0000 C   0  0  0  0  0  0  0  0  0  0  0  0
   -0.7500   -3.2860    0.0000 C   0  0  0  0  0  0  0  0  0  0  0  0
   -1.0838   -4.7484    0.0000 O   0  0  0  0  0  0  0  0  0  0  0  0
    0.0158   -5.7686    0.0000 C   0  0  0  0  0  0  0  0  0  0  0  0
   -0.3180   -7.2310    0.0000 C   0  0  0  0  0  0  0  0  0  0  0  0
    0.7816   -8.2513    0.0000 C   0  0  0  0  0  0  0  0  0  0  0  0
    1.4659   -9.5861    0.0000 C   0  0  0  0  0  0  0  0  0  0  0  0
   -0.4141   -9.1570    0.0000 O   0  0  0  0  0  0  0  0  0  0  0  0
   -0.2276  -10.6453    0.0000 C   0  0  0  0  0  0  0  0  0  0  0  0
    2.2150   -7.8091    0.0000 C   0  0  0  0  0  0  0  0  0  0  0  0
    3.3145   -8.8294    0.0000 O   0  0  0  0  0  0  0  0  0  0  0  0
    2.5487   -6.3467    0.0000 C   0  0  0  0  0  0  0  0  0  0  0  0
    3.9821   -5.9046    0.0000 C   0  0  0  0  0  0  0  0  0  0  0  0
    1.4492   -5.3265    0.0000 O   0  0  0  0  0  0  0  0  0  0  0  0
   -2.1015   -2.6351    0.0000 C   0  0  0  0  0  0  0  0  0  0  0  0
   -3.0367   -3.8079    0.0000 C   0  0  0  0  0  0  0  0  0  0  0  0
   -3.0367   -1.4624    0.0000 C   0  0  0  0  0  0  0  0  0  0  0  0
   -4.3881   -2.1132    0.0000 O   0  0  0  0  0  0  0  0  0  0  0  0
   -5.6275   -1.2682    0.0000 C   0  0  0  0  0  0  0  0  0  0  0  0
   -5.5154    0.2276    0.0000 O   0  0  0  0  0  0  0  0  0  0  0  0
   -6.7548    1.0725    0.0000 C   0  0  0  0  0  0  0  0  0  0  0  0
   -6.6427    2.5684    0.0000 C   0  0  0  0  0  0  0  0  0  0  0  0
   -8.1062    0.4217    0.0000 C   0  0  0  0  0  0  0  0  0  0  0  0
   -8.2183   -1.0741    0.0000 C   0  0  0  0  0  0  0  0  0  0  0  0
   -9.5698   -1.7249    0.0000 N   0  0  0  0  0  0  0  0  0  0  0  0
  -10.8091   -0.8799    0.0000 C   0  0  0  0  0  0  0  0  0  0  0  0
   -9.6819   -3.2207    0.0000 C   0  0  0  0  0  0  0  0  0  0  0  0
  -11.0333   -3.8715    0.0000 C   0  0  0  0  0  0  0  0  0  0  0  0
   -8.4425   -4.0657    0.0000 C   0  0  0  0  0  0  0  0  0  0  0  0
   -6.9790   -1.9191    0.0000 C   0  0  0  0  0  0  0  0  0  0  0  0
   -7.0910   -3.4149    0.0000 O   0  0  0  0  0  0  0  0  0  0  0  0
   -3.3705    0.0000    0.0000 C   0  0  0  0  0  0  0  0  0  0  0  0
   -4.6098   -0.8450    0.0000 C   0  0  0  0  0  0  0  0  0  0  0  0
   -4.6098    0.8450    0.0000 O   0  0  0  0  0  0  0  0  0  0  0  0
   -3.0367    1.4624    0.0000 C   0  0  0  0  0  0  0  0  0  0  0  0
   -2.1015    2.6351    0.0000 C   0  0  0  0  0  0  0  0  0  0  0  0
   -3.0367    3.8079    0.0000 C   0  0  0  0  0  0  0  0  0  0  0  0
   -0.7500    3.2860    0.0000 C   0  0  0  0  0  0  0  0  0  0  0  0
   -1.0838    4.7484    0.0000 O   0  0  0  0  0  0  0  0  0  0  0  0
    0.0158    5.7686    0.0000 C   0  0  0  0  0  0  0  0  0  0  0  0
   -0.3180    7.2310    0.0000 C   0  0  0  0  0  0  0  0  0  0  0  0
    0.7816    8.2513    0.0000 N   0  0  0  0  0  0  0  0  0  0  0  0
   -1.7513    7.6731    0.0000 O   0  0  0  0  0  0  0  0  0  0  0  0
    0.7500    3.2860    0.0000 C   0  0  0  0  0  0  0  0  0  0  0  0
    1.0838    4.7484    0.0000 C   0  0  0  0  0  0  0  0  0  0  0  0
    2.1015    2.6351    0.0000 C   0  0  0  0  0  0  0  0  0  0  0  0
    3.0367    3.8079    0.0000 O   0  0  0  0  0  0  0  0  0  0  0  0
    3.0367    1.4624    0.0000 C   0  0  0  0  0  0  0  0  0  0  0  0
    3.7867    2.7614    0.0000 C   0  0  0  0  0  0  0  0  0  0  0  0
    4.5199    1.2388    0.0000 O   0  0  0  0  0  0  0  0  0  0  0  0
  1  2  1  0
  3  2  1  1
  3  4  1  0
  4  5  1  0
  5  6  2  0
  5  7  1  0
  7  8  1  6
  7  9  1  0
  9 10  1  1
 11 10  1  6
 11 12  1  0
 12 13  1  0
 13 14  1  1
 13 15  1  0
 15 16  1  0
 13 17  1  0
 17 18  1  6
 17 19  1  0
 19 20  1  1
 19 21  1  0
  9 22  1  0
 22 23  1  6
 22 24  1  0
 24 25  1  1
 26 25  1  1
 26 27  1  0
 27 28  1  0
 28 29  1  1
 28 30  1  0
 30 31  1  0
 31 32  1  1
 32 33  1  0
 32 34  1  0
 34 35  1  0
 34 36  1  0
 31 37  1  0
 37 38  1  6
 24 39  1  0
 39 40  1  1
 39 41  1  0
 39 42  1  0
 42 43  1  0
 43 44  1  1
 43 45  1  0
 45 46  1  6
 46 47  1  0
 47 48  1  0
 48 49  1  0
 48 50  2  0
 45 51  1  0
 51 52  1  6
 51 53  1  0
 53 54  1  1
 53 55  1  0
 55 56  1  1
 55 57  1  0
 55  3  1  0
 21 11  1  0
 37 26  1  0
M  END
>  <ChEMBL_IDs>  (133) 
CHEMBL584550

>  <target_organism>  (133) 
Rattus norvegicus

>  <target_molecule_pref_name>  (133) 
None

>  <# Known Targets>  (133) 
1.0

>  <Known Targets>  (133) 
CHEMBL5306

>  <smiles>  (133) 
CC[C@H]1OC(=O)[C@H](C)[C@@H](O[C@H]2C[C@@](C)(OC)[C@@H](O)[C@H](C)O2)[C@H](C)[C@@H](O[C@@H]2O[C@H](C)C[C@H](N(C)C(C)C)[C@H]2O)[C@](C)(O)C[C@@H](C)[C@H](OCC(N)=O)[C@H](C)[C@@H](O)[C@]1(C)O

$$$$

     RDKit          2D

 56 58  0  0  0  0  0  0  0  0999 V2000
    5.6205   -1.2990    0.0000 C   0  0  0  0  0  0  0  0  0  0  0  0
    4.8705    0.0000    0.0000 C   0  0  0  0  0  0  0  0  0  0  0  0
    3.3705    0.0000    0.0000 C   0  0  0  0  0  0  0  0  0  0  0  0
    3.0367   -1.4624    0.0000 O   0  0  0  0  0  0  0  0  0  0  0  0
    2.1015   -2.6351    0.0000 C   0  0  0  0  0  0  0  0  0  0  0  0
    3.0367   -3.8079    0.0000 O   0  0  0  0  0  0  0  0  0  0  0  0
    0.7500   -3.2860    0.0000 C   0  0  0  0  0  0  0  0  0  0  0  0
    1.3600   -4.4903    0.0000 C   0  0  0  0  0  0  0  0  0  0  0  0
   -0.7500   -3.2860    0.0000 C   0  0  0  0  0  0  0  0  0  0  0  0
   -1.0838   -4.7484    0.0000 O   0  0  0  0  0  0  0  0  0  0  0  0
    0.0158   -5.7686    0.0000 C   0  0  0  0  0  0  0  0  0  0  0  0
   -0.3180   -7.2310    0.0000 C   0  0  0  0  0  0  0  0  0  0  0  0
    0.7816   -8.2513    0.0000 C   0  0  0  0  0  0  0  0  0  0  0  0
    1.4659   -9.5861    0.0000 C   0  0  0  0  0  0  0  0  0  0  0  0
   -0.4141   -9.1570    0.0000 O   0  0  0  0  0  0  0  0  0  0  0  0
   -0.2276  -10.6453    0.0000 C   0  0  0  0  0  0  0  0  0  0  0  0
    2.2150   -7.8091    0.0000 C   0  0  0  0  0  0  0  0  0  0  0  0
    2.5487   -6.3467    0.0000 C   0  0  0  0  0  0  0  0  0  0  0  0
    3.9821   -5.9046    0.0000 C   0  0  0  0  0  0  0  0  0  0  0  0
    1.4492   -5.3265    0.0000 O   0  0  0  0  0  0  0  0  0  0  0  0
   -2.1015   -2.6351    0.0000 C   0  0  0  0  0  0  0  0  0  0  0  0
   -3.0367   -3.8079    0.0000 C   0  0  0  0  0  0  0  0  0  0  0  0
   -3.0367   -1.4624    0.0000 C   0  0  0  0  0  0  0  0  0  0  0  0
   -4.3881   -2.1132    0.0000 O   0  0  0  0  0  0  0  0  0  0  0  0
   -5.6275   -1.2682    0.0000 C   0  0  0  0  0  0  0  0  0  0  0  0
   -5.5154    0.2276    0.0000 O   0  0  0  0  0  0  0  0  0  0  0  0
   -6.7548    1.0725    0.0000 C   0  0  0  0  0  0  0  0  0  0  0  0
   -6.6427    2.5684    0.0000 C   0  0  0  0  0  0  0  0  0  0  0  0
   -8.1062    0.4217    0.0000 C   0  0  0  0  0  0  0  0  0  0  0  0
   -8.2183   -1.0741    0.0000 C   0  0  0  0  0  0  0  0  0  0  0  0
   -9.5698   -1.7249    0.0000 N   0  0  0  0  0  0  0  0  0  0  0  0
  -10.8091   -0.8799    0.0000 C   0  0  0  0  0  0  0  0  0  0  0  0
   -9.6819   -3.2207    0.0000 C   0  0  0  0  0  0  0  0  0  0  0  0
  -11.0333   -3.8715    0.0000 C   0  0  0  0  0  0  0  0  0  0  0  0
   -8.4425   -4.0657    0.0000 C   0  0  0  0  0  0  0  0  0  0  0  0
   -6.9790   -1.9191    0.0000 C   0  0  0  0  0  0  0  0  0  0  0  0
   -7.0910   -3.4149    0.0000 O   0  0  0  0  0  0  0  0  0  0  0  0
   -3.3705    0.0000    0.0000 C   0  0  0  0  0  0  0  0  0  0  0  0
   -4.6098   -0.8450    0.0000 C   0  0  0  0  0  0  0  0  0  0  0  0
   -4.6098    0.8450    0.0000 O   0  0  0  0  0  0  0  0  0  0  0  0
   -3.0367    1.4624    0.0000 C   0  0  0  0  0  0  0  0  0  0  0  0
   -2.1015    2.6351    0.0000 C   0  0  0  0  0  0  0  0  0  0  0  0
   -3.0367    3.8079    0.0000 C   0  0  0  0  0  0  0  0  0  0  0  0
   -0.7500    3.2860    0.0000 C   0  0  0  0  0  0  0  0  0  0  0  0
   -1.0838    4.7484    0.0000 O   0  0  0  0  0  0  0  0  0  0  0  0
    0.0158    5.7686    0.0000 C   0  0  0  0  0  0  0  0  0  0  0  0
   -0.3180    7.2310    0.0000 C   0  0  0  0  0  0  0  0  0  0  0  0
    0.7816    8.2513    0.0000 N   0  0  0  0  0  0  0  0  0  0  0  0
   -1.7513    7.6731    0.0000 O   0  0  0  0  0  0  0  0  0  0  0  0
    0.7500    3.2860    0.0000 C   0  0  0  0  0  0  0  0  0  0  0  0
    1.0838    4.7484    0.0000 C   0  0  0  0  0  0  0  0  0  0  0  0
    2.1015    2.6351    0.0000 C   0  0  0  0  0  0  0  0  0  0  0  0
    3.0367    3.8079    0.0000 O   0  0  0  0  0  0  0  0  0  0  0  0
    3.0367    1.4624    0.0000 C   0  0  0  0  0  0  0  0  0  0  0  0
    3.7867    2.7614    0.0000 C   0  0  0  0  0  0  0  0  0  0  0  0
    4.5199    1.2388    0.0000 O   0  0  0  0  0  0  0  0  0  0  0  0
  1  2  1  0
  3  2  1  1
  3  4  1  0
  4  5  1  0
  5  6  2  0
  5  7  1  0
  7  8  1  6
  7  9  1  0
  9 10  1  1
 11 10  1  6
 11 12  1  0
 12 13  1  0
 13 14  1  1
 13 15  1  0
 15 16  1  0
 13 17  1  0
 17 18  1  0
 18 19  1  1
 18 20  1  0
  9 21  1  0
 21 22  1  6
 21 23  1  0
 23 24  1  1
 25 24  1  1
 25 26  1  0
 26 27  1  0
 27 28  1  1
 27 29  1  0
 29 30  1  0
 30 31  1  1
 31 32  1  0
 31 33  1  0
 33 34  1  0
 33 35  1  0
 30 36  1  0
 36 37  1  6
 23 38  1  0
 38 39  1  1
 38 40  1  0
 38 41  1  0
 41 42  1  0
 42 43  1  1
 42 44  1  0
 44 45  1  6
 45 46  1  0
 46 47  1  0
 47 48  1  0
 47 49  2  0
 44 50  1  0
 50 51  1  6
 50 52  1  0
 52 53  1  1
 52 54  1  0
 54 55  1  1
 54 56  1  0
 54  3  1  0
 20 11  1  0
 36 25  1  0
M  END
>  <ChEMBL_IDs>  (134) 
CHEMBL1778051

>  <target_organism>  (134) 
Homo sapiens,None,Escherichia coli K-12

>  <target_molecule_pref_name>  (134) 
None

>  <# Known Targets>  (134) 
1.0

>  <Known Targets>  (134) 
CHEMBL5306

>  <smiles>  (134) 
CC[C@H]1OC(=O)[C@H](C)[C@@H](O[C@H]2C[C@@](C)(OC)C[C@H](C)O2)[C@H](C)[C@@H](O[C@@H]2O[C@H](C)C[C@H](N(C)C(C)C)[C@H]2O)[C@](C)(O)C[C@@H](C)[C@H](OCC(N)=O)[C@H](C)[C@@H](O)[C@]1(C)O

$$$$

     RDKit          2D

 55 57  0  0  0  0  0  0  0  0999 V2000
    7.3573    1.2990    0.0000 C   0  0  0  0  0  0  0  0  0  0  0  0
    5.8573    1.2990    0.0000 C   0  0  0  0  0  0  0  0  0  0  0  0
    5.1073    0.0000    0.0000 C   0  0  0  0  0  0  0  0  0  0  0  0
    3.6073    0.0000    0.0000 N   0  0  0  0  0  0  0  0  0  0  0  0
    3.2954    1.4672    0.0000 C   0  0  0  0  0  0  0  0  0  0  0  0
    2.4138    2.6807    0.0000 C   0  0  0  0  0  0  0  0  0  0  0  0
    3.4175    3.7955    0.0000 C   0  0  0  0  0  0  0  0  0  0  0  0
    1.1147    3.4307    0.0000 C   0  0  0  0  0  0  0  0  0  0  0  0
   -0.3771    3.5875    0.0000 C   0  0  0  0  0  0  0  0  0  0  0  0
   -1.3412    4.7366    0.0000 C   0  0  0  0  0  0  0  0  0  0  0  0
    0.3271    4.9120    0.0000 O   0  0  0  0  0  0  0  0  0  0  0  0
    1.8262    4.9643    0.0000 C   0  0  0  0  0  0  0  0  0  0  0  0
   -1.8037    3.1240    0.0000 C   0  0  0  0  0  0  0  0  0  0  0  0
   -2.5537    4.4231    0.0000 O   0  0  0  0  0  0  0  0  0  0  0  0
   -1.8037    5.7221    0.0000 C   0  0  0  0  0  0  0  0  0  0  0  0
   -0.3037    5.7221    0.0000 O   0  0  0  0  0  0  0  0  0  0  0  0
    0.4463    7.0211    0.0000 C   0  0  0  0  0  0  0  0  0  0  0  0
    1.9463    7.0211    0.0000 C   0  0  0  0  0  0  0  0  0  0  0  0
   -0.3037    8.3202    0.0000 C   0  0  0  0  0  0  0  0  0  0  0  0
   -1.8037    8.3202    0.0000 C   0  0  0  0  0  0  0  0  0  0  0  0
   -2.5537    9.6192    0.0000 N   0  0  0  0  0  0  0  0  0  0  0  0
   -1.8037   10.9182    0.0000 C   0  0  0  0  0  0  0  0  0  0  0  0
   -4.0537    9.6192    0.0000 C   0  0  0  0  0  0  0  0  0  0  0  0
   -2.5537    7.0211    0.0000 C   0  0  0  0  0  0  0  0  0  0  0  0
   -4.0537    7.0211    0.0000 O   0  0  0  0  0  0  0  0  0  0  0  0
   -2.9184    2.1203    0.0000 C   0  0  0  0  0  0  0  0  0  0  0  0
   -4.1319    3.0020    0.0000 C   0  0  0  0  0  0  0  0  0  0  0  0
   -3.5285    0.7500    0.0000 C   0  0  0  0  0  0  0  0  0  0  0  0
   -4.9957    1.0619    0.0000 O   0  0  0  0  0  0  0  0  0  0  0  0
   -5.9994   -0.0528    0.0000 C   0  0  0  0  0  0  0  0  0  0  0  0
   -7.4666    0.2590    0.0000 C   0  0  0  0  0  0  0  0  0  0  0  0
   -8.4703   -0.8557    0.0000 C   0  0  0  0  0  0  0  0  0  0  0  0
   -9.7947   -1.5599    0.0000 C   0  0  0  0  0  0  0  0  0  0  0  0
   -9.3938    0.3263    0.0000 O   0  0  0  0  0  0  0  0  0  0  0  0
  -10.8792    0.1176    0.0000 C   0  0  0  0  0  0  0  0  0  0  0  0
   -8.0068   -2.2823    0.0000 C   0  0  0  0  0  0  0  0  0  0  0  0
   -9.0105   -3.3970    0.0000 O   0  0  0  0  0  0  0  0  0  0  0  0
   -6.5396   -2.5942    0.0000 C   0  0  0  0  0  0  0  0  0  0  0  0
   -6.0760   -4.0207    0.0000 C   0  0  0  0  0  0  0  0  0  0  0  0
   -5.5359   -1.4794    0.0000 O   0  0  0  0  0  0  0  0  0  0  0  0
   -3.5285   -0.7500    0.0000 C   0  0  0  0  0  0  0  0  0  0  0  0
   -4.7418   -1.3419    0.0000 C   0  0  0  0  0  0  0  0  0  0  0  0
   -2.9184   -2.1203    0.0000 C   0  0  0  0  0  0  0  0  0  0  0  0
   -4.1319   -3.0020    0.0000 O   0  0  0  0  0  0  0  0  0  0  0  0
   -1.8037   -3.1240    0.0000 O   0  0  0  0  0  0  0  0  0  0  0  0
   -0.3771   -3.5875    0.0000 C   0  0  0  0  0  0  0  0  0  0  0  0
   -0.5339   -5.0793    0.0000 C   0  0  0  0  0  0  0  0  0  0  0  0
   -1.9042   -5.6894    0.0000 C   0  0  0  0  0  0  0  0  0  0  0  0
    1.1147   -3.4307    0.0000 C   0  0  0  0  0  0  0  0  0  0  0  0
    2.2967   -4.3542    0.0000 C   0  0  0  0  0  0  0  0  0  0  0  0
    0.7013   -4.8726    0.0000 O   0  0  0  0  0  0  0  0  0  0  0  0
    2.4138   -2.6807    0.0000 C   0  0  0  0  0  0  0  0  0  0  0  0
    3.4175   -3.7955    0.0000 O   0  0  0  0  0  0  0  0  0  0  0  0
    3.2954   -1.4672    0.0000 C   0  0  0  0  0  0  0  0  0  0  0  0
    4.6658   -2.0773    0.0000 C   0  0  0  0  0  0  0  0  0  0  0  0
  1  2  2  0
  2  3  1  0
  3  4  1  0
  4  5  1  0
  5  6  1  0
  6  7  1  1
  6  8  1  0
  8  9  1  0
  9 10  1  1
  9 11  1  0
 11 12  1  0
  9 13  1  0
 13 14  1  1
 15 14  1  1
 15 16  1  0
 16 17  1  0
 17 18  1  1
 17 19  1  0
 19 20  1  0
 20 21  1  1
 21 22  1  0
 21 23  1  0
 20 24  1  0
 24 25  1  6
 13 26  1  0
 26 27  1  6
 26 28  1  0
 28 29  1  1
 30 29  1  6
 30 31  1  0
 31 32  1  0
 32 33  1  1
 32 34  1  0
 34 35  1  0
 32 36  1  0
 36 37  1  6
 36 38  1  0
 38 39  1  1
 38 40  1  0
 28 41  1  0
 41 42  1  6
 41 43  1  0
 43 44  2  0
 43 45  1  0
 45 46  1  0
 46 47  1  1
 47 48  1  0
 46 49  1  0
 49 50  1  1
 49 51  1  0
 49 52  1  0
 52 53  1  1
 52 54  1  0
 54 55  1  6
 54  4  1  0
 24 15  1  0
 40 30  1  0
M  END
>  <ChEMBL_IDs>  (135) 
CHEMBL1774296

>  <target_organism>  (135) 
Homo sapiens,None,Escherichia coli K-12

>  <target_molecule_pref_name>  (135) 
None

>  <# Known Targets>  (135) 
1.0

>  <Known Targets>  (135) 
CHEMBL612888

>  <smiles>  (135) 
C=CCN1C[C@H](C)C[C@@](C)(OC)[C@H](O[C@@H]2O[C@H](C)C[C@H](N(C)C)[C@H]2O)[C@@H](C)[C@H](O[C@H]2C[C@@](C)(OC)[C@@H](O)[C@H](C)O2)[C@@H](C)C(=O)O[C@H](CC)[C@@](C)(O)[C@H](O)[C@H]1C

$$$$

     RDKit          2D

 58 60  0  0  0  0  0  0  0  0999 V2000
    5.6205   -1.2990    0.0000 C   0  0  0  0  0  0  0  0  0  0  0  0
    4.8705    0.0000    0.0000 C   0  0  0  0  0  0  0  0  0  0  0  0
    3.3705    0.0000    0.0000 C   0  0  0  0  0  0  0  0  0  0  0  0
    3.0367   -1.4624    0.0000 O   0  0  0  0  0  0  0  0  0  0  0  0
    2.1015   -2.6351    0.0000 C   0  0  0  0  0  0  0  0  0  0  0  0
    3.0367   -3.8079    0.0000 O   0  0  0  0  0  0  0  0  0  0  0  0
    0.7500   -3.2860    0.0000 C   0  0  0  0  0  0  0  0  0  0  0  0
    1.3600   -4.4903    0.0000 C   0  0  0  0  0  0  0  0  0  0  0  0
   -0.7500   -3.2860    0.0000 C   0  0  0  0  0  0  0  0  0  0  0  0
   -1.0838   -4.7484    0.0000 O   0  0  0  0  0  0  0  0  0  0  0  0
    0.0158   -5.7686    0.0000 C   0  0  0  0  0  0  0  0  0  0  0  0
   -0.3180   -7.2310    0.0000 C   0  0  0  0  0  0  0  0  0  0  0  0
    0.7816   -8.2513    0.0000 C   0  0  0  0  0  0  0  0  0  0  0  0
    1.4659   -9.5861    0.0000 C   0  0  0  0  0  0  0  0  0  0  0  0
   -0.4141   -9.1570    0.0000 O   0  0  0  0  0  0  0  0  0  0  0  0
   -0.2276  -10.6453    0.0000 C   0  0  0  0  0  0  0  0  0  0  0  0
    2.2150   -7.8091    0.0000 C   0  0  0  0  0  0  0  0  0  0  0  0
    3.3145   -8.8294    0.0000 O   0  0  0  0  0  0  0  0  0  0  0  0
    4.7479   -8.3873    0.0000 C   0  0  0  0  0  0  0  0  0  0  0  0
    5.0817   -6.9249    0.0000 O   0  0  0  0  0  0  0  0  0  0  0  0
    5.8475   -9.4075    0.0000 C   0  0  0  0  0  0  0  0  0  0  0  0
    7.2808   -8.9654    0.0000 C   0  0  0  0  0  0  0  0  0  0  0  0
    7.6146   -7.5030    0.0000 O   0  0  0  0  0  0  0  0  0  0  0  0
    8.3804   -9.9856    0.0000 O   0  0  0  0  0  0  0  0  0  0  0  0
    2.5487   -6.3467    0.0000 C   0  0  0  0  0  0  0  0  0  0  0  0
    3.9821   -5.9046    0.0000 C   0  0  0  0  0  0  0  0  0  0  0  0
    1.4492   -5.3265    0.0000 O   0  0  0  0  0  0  0  0  0  0  0  0
   -2.1015   -2.6351    0.0000 C   0  0  0  0  0  0  0  0  0  0  0  0
   -3.0367   -3.8079    0.0000 C   0  0  0  0  0  0  0  0  0  0  0  0
   -3.0367   -1.4624    0.0000 C   0  0  0  0  0  0  0  0  0  0  0  0
   -4.3881   -2.1132    0.0000 O   0  0  0  0  0  0  0  0  0  0  0  0
   -5.6275   -1.2682    0.0000 C   0  0  0  0  0  0  0  0  0  0  0  0
   -5.5154    0.2276    0.0000 O   0  0  0  0  0  0  0  0  0  0  0  0
   -6.7548    1.0725    0.0000 C   0  0  0  0  0  0  0  0  0  0  0  0
   -6.6427    2.5684    0.0000 C   0  0  0  0  0  0  0  0  0  0  0  0
   -8.1062    0.4217    0.0000 C   0  0  0  0  0  0  0  0  0  0  0  0
   -8.2183   -1.0741    0.0000 C   0  0  0  0  0  0  0  0  0  0  0  0
   -9.5698   -1.7249    0.0000 N   0  0  0  0  0  0  0  0  0  0  0  0
  -10.8091   -0.8799    0.0000 C   0  0  0  0  0  0  0  0  0  0  0  0
   -9.6819   -3.2207    0.0000 C   0  0  0  0  0  0  0  0  0  0  0  0
   -6.9790   -1.9191    0.0000 C   0  0  0  0  0  0  0  0  0  0  0  0
   -7.0910   -3.4149    0.0000 O   0  0  0  0  0  0  0  0  0  0  0  0
   -3.3705    0.0000    0.0000 C   0  0  0  0  0  0  0  0  0  0  0  0
   -4.6098   -0.8450    0.0000 C   0  0  0  0  0  0  0  0  0  0  0  0
   -4.6098    0.8450    0.0000 O   0  0  0  0  0  0  0  0  0  0  0  0
   -5.3904    0.6832    0.0000 C   0  0  0  0  0  0  0  0  0  0  0  0
   -3.0367    1.4624    0.0000 C   0  0  0  0  0  0  0  0  0  0  0  0
   -2.1015    2.6351    0.0000 C   0  0  0  0  0  0  0  0  0  0  0  0
   -3.0367    3.8079    0.0000 C   0  0  0  0  0  0  0  0  0  0  0  0
   -0.7500    3.2860    0.0000 C   0  0  0  0  0  0  0  0  0  0  0  0
   -1.0838    4.7484    0.0000 O   0  0  0  0  0  0  0  0  0  0  0  0
    0.7500    3.2860    0.0000 C   0  0  0  0  0  0  0  0  0  0  0  0
    1.0838    4.7484    0.0000 C   0  0  0  0  0  0  0  0  0  0  0  0
    2.1015    2.6351    0.0000 C   0  0  0  0  0  0  0  0  0  0  0  0
    3.0367    3.8079    0.0000 O   0  0  0  0  0  0  0  0  0  0  0  0
    3.0367    1.4624    0.0000 C   0  0  0  0  0  0  0  0  0  0  0  0
    3.7867    2.7614    0.0000 C   0  0  0  0  0  0  0  0  0  0  0  0
    4.5199    1.2388    0.0000 O   0  0  0  0  0  0  0  0  0  0  0  0
  1  2  1  0
  3  2  1  1
  3  4  1  0
  4  5  1  0
  5  6  2  0
  5  7  1  0
  7  8  1  6
  7  9  1  0
  9 10  1  1
 10 11  1  0
 11 12  1  0
 12 13  1  0
 13 14  1  1
 13 15  1  0
 15 16  1  0
 13 17  1  0
 17 18  1  6
 18 19  1  0
 19 20  2  0
 19 21  1  0
 21 22  1  0
 22 23  2  0
 22 24  1  0
 17 25  1  0
 25 26  1  1
 25 27  1  0
  9 28  1  0
 28 29  1  6
 28 30  1  0
 30 31  1  1
 31 32  1  0
 32 33  1  0
 33 34  1  0
 34 35  1  1
 34 36  1  0
 36 37  1  0
 37 38  1  1
 38 39  1  0
 38 40  1  0
 37 41  1  0
 41 42  1  6
 30 43  1  0
 43 44  1  1
 43 45  1  0
 45 46  1  0
 43 47  1  0
 47 48  1  0
 48 49  1  1
 48 50  1  0
 50 51  2  0
 50 52  1  0
 52 53  1  6
 52 54  1  0
 54 55  1  1
 54 56  1  0
 56 57  1  1
 56 58  1  0
 56  3  1  0
 27 11  1  0
 41 32  1  0
M  END
>  <ChEMBL_IDs>  (136) 
CHEMBL264900

>  <target_organism>  (136) 
Homo sapiens,None

>  <target_molecule_pref_name>  (136) 
None

>  <# Known Targets>  (136) 
1.0

>  <Known Targets>  (136) 
CHEMBL354

>  <smiles>  (136) 
CC[C@H]1OC(=O)[C@H](C)[C@@H](OC2C[C@@](C)(OC)[C@@H](OC(=O)CC(=O)O)[C@H](C)O2)[C@H](C)[C@@H](OC2O[C@H](C)C[C@H](N(C)C)[C@H]2O)[C@](C)(OC)C[C@@H](C)C(=O)[C@H](C)[C@@H](O)[C@]1(C)O

$$$$

     RDKit          2D

 57 59  0  0  0  0  0  0  0  0999 V2000
    8.3444   -2.5981    0.0000 C   0  0  0  0  0  0  0  0  0  0  0  0
    7.5944   -1.2990    0.0000 C   0  0  0  0  0  0  0  0  0  0  0  0
    6.0944   -1.2990    0.0000 O   0  0  0  0  0  0  0  0  0  0  0  0
    5.3444   -0.0000    0.0000 C   0  0  0  0  0  0  0  0  0  0  0  0
    6.3864    1.0790    0.0000 O   0  0  0  0  0  0  0  0  0  0  0  0
    3.8444    0.0000    0.0000 C   0  0  0  0  0  0  0  0  0  0  0  0
    3.5517   -1.4712    0.0000 C   0  0  0  0  0  0  0  0  0  0  0  0
    2.7184   -2.7184    0.0000 C   0  0  0  0  0  0  0  0  0  0  0  0
    3.7790   -3.7790    0.0000 O   0  0  0  0  0  0  0  0  0  0  0  0
    1.4712   -3.5517    0.0000 O   0  0  0  0  0  0  0  0  0  0  0  0
   -0.0000   -3.8444    0.0000 C   0  0  0  0  0  0  0  0  0  0  0  0
   -0.0000   -5.3444    0.0000 C   0  0  0  0  0  0  0  0  0  0  0  0
   -1.4712   -3.5517    0.0000 C   0  0  0  0  0  0  0  0  0  0  0  0
   -2.7184   -2.7184    0.0000 C   0  0  0  0  0  0  0  0  0  0  0  0
   -3.5517   -1.4712    0.0000 C   0  0  0  0  0  0  0  0  0  0  0  0
   -3.8444    0.0000    0.0000 C   0  0  0  0  0  0  0  0  0  0  0  0
   -3.5517    1.4712    0.0000 C   0  0  0  0  0  0  0  0  0  0  0  0
   -2.7184    2.7184    0.0000 C   0  0  0  0  0  0  0  0  0  0  0  0
   -3.7790    3.7790    0.0000 O   0  0  0  0  0  0  0  0  0  0  0  0
   -1.4712    3.5517    0.0000 C   0  0  0  0  0  0  0  0  0  0  0  0
   -2.0452    4.9376    0.0000 C   0  0  0  0  0  0  0  0  0  0  0  0
    0.0000    3.8444    0.0000 C   0  0  0  0  0  0  0  0  0  0  0  0
    1.4712    3.5517    0.0000 C   0  0  0  0  0  0  0  0  0  0  0  0
    2.0452    4.9376    0.0000 C   0  0  0  0  0  0  0  0  0  0  0  0
    3.5324    5.1333    0.0000 C   0  0  0  0  0  0  0  0  0  0  0  0
    4.1064    6.5192    0.0000 O   0  0  0  0  0  0  0  0  0  0  0  0
    2.7184    2.7184    0.0000 C   0  0  0  0  0  0  0  0  0  0  0  0
    3.7790    3.7790    0.0000 O   0  0  0  0  0  0  0  0  0  0  0  0
    5.2279    3.3908    0.0000 C   0  0  0  0  0  0  0  0  0  0  0  0
    5.6162    1.9419    0.0000 O   0  0  0  0  0  0  0  0  0  0  0  0
    7.0650    1.5537    0.0000 C   0  0  0  0  0  0  0  0  0  0  0  0
    7.4533    0.1048    0.0000 C   0  0  0  0  0  0  0  0  0  0  0  0
    8.1257    2.6144    0.0000 C   0  0  0  0  0  0  0  0  0  0  0  0
    9.5746    2.2261    0.0000 O   0  0  0  0  0  0  0  0  0  0  0  0
   10.6353    3.2868    0.0000 C   0  0  0  0  0  0  0  0  0  0  0  0
   12.0841    2.8986    0.0000 C   0  0  0  0  0  0  0  0  0  0  0  0
   13.1448    3.9592    0.0000 C   0  0  0  0  0  0  0  0  0  0  0  0
   14.5043    4.5931    0.0000 C   0  0  0  0  0  0  0  0  0  0  0  0
   14.0052    2.7305    0.0000 O   0  0  0  0  0  0  0  0  0  0  0  0
   12.7566    5.4081    0.0000 C   0  0  0  0  0  0  0  0  0  0  0  0
   13.8172    6.4688    0.0000 O   0  0  0  0  0  0  0  0  0  0  0  0
   13.4290    7.9177    0.0000 C   0  0  0  0  0  0  0  0  0  0  0  0
   11.9801    8.3059    0.0000 O   0  0  0  0  0  0  0  0  0  0  0  0
   14.4897    8.9783    0.0000 C   0  0  0  0  0  0  0  0  0  0  0  0
   14.1014   10.4272    0.0000 C   0  0  0  0  0  0  0  0  0  0  0  0
   11.3077    5.7963    0.0000 C   0  0  0  0  0  0  0  0  0  0  0  0
   10.9195    7.2452    0.0000 C   0  0  0  0  0  0  0  0  0  0  0  0
   10.2470    4.7357    0.0000 O   0  0  0  0  0  0  0  0  0  0  0  0
    7.7375    4.0632    0.0000 C   0  0  0  0  0  0  0  0  0  0  0  0
    8.7981    5.1239    0.0000 N   0  0  0  0  0  0  0  0  0  0  0  0
    8.4099    6.5728    0.0000 C   0  0  0  0  0  0  0  0  0  0  0  0
    9.5952    5.1100    0.0000 C   0  0  0  0  0  0  0  0  0  0  0  0
    6.2886    4.4515    0.0000 C   0  0  0  0  0  0  0  0  0  0  0  0
    5.9004    5.9004    0.0000 O   0  0  0  0  0  0  0  0  0  0  0  0
    3.5517    1.4712    0.0000 C   0  0  0  0  0  0  0  0  0  0  0  0
    4.9376    2.0452    0.0000 O   0  0  0  0  0  0  0  0  0  0  0  0
    5.4874    3.4408    0.0000 C   0  0  0  0  0  0  0  0  0  0  0  0
  1  2  1  0
  2  3  1  0
  3  4  1  0
  4  5  2  0
  6  4  1  6
  6  7  1  0
  7  8  1  0
  8  9  2  0
  8 10  1  0
 10 11  1  0
 11 12  1  6
 11 13  1  0
 13 14  1  0
 14 15  2  0
 15 16  1  0
 16 17  2  0
 17 18  1  0
 18 19  1  6
 18 20  1  0
 20 21  1  6
 20 22  1  0
 22 23  1  0
 23 24  1  6
 24 25  1  0
 25 26  2  0
 23 27  1  0
 27 28  1  6
 29 28  1  1
 29 30  1  0
 30 31  1  0
 31 32  1  1
 31 33  1  0
 33 34  1  6
 35 34  1  6
 35 36  1  0
 36 37  1  0
 37 38  1  1
 37 39  1  0
 37 40  1  0
 40 41  1  6
 41 42  1  0
 42 43  2  0
 42 44  1  0
 44 45  1  0
 40 46  1  0
 46 47  1  1
 46 48  1  0
 33 49  1  0
 49 50  1  1
 50 51  1  0
 50 52  1  0
 49 53  1  0
 53 54  1  6
 27 55  1  0
 55 56  1  1
 56 57  1  0
 55  6  1  0
 53 29  1  0
 48 35  1  0
M  END
>  <ChEMBL_IDs>  (137) 
CHEMBL1908336

>  <target_organism>  (137) 
Staphylococcus aureus

>  <target_molecule_pref_name>  (137) 
MIDECAMYCIN

>  <# Known Targets>  (137) 
1.0

>  <Known Targets>  (137) 
CHEMBL6020

>  <smiles>  (137) 
CCOC(=O)[C@@H]1CC(=O)O[C@H](C)C/C=C/C=C/[C@H](O)[C@H](C)C[C@H](CC=O)[C@H](O[C@@H]2O[C@H](C)[C@@H](O[C@H]3C[C@@](C)(O)[C@@H](OC(=O)CC)[C@H](C)O3)[C@H](N(C)C)[C@H]2O)[C@H]1OC

$$$$

     RDKit          2D

 57 59  0  0  0  0  0  0  0  0999 V2000
    6.0944   -3.8971    0.0000 C   0  0  0  0  0  0  0  0  0  0  0  0
    5.3444   -2.5981    0.0000 C   0  0  0  0  0  0  0  0  0  0  0  0
    6.0944   -1.2990    0.0000 C   0  0  0  0  0  0  0  0  0  0  0  0
    7.5944   -1.2990    0.0000 O   0  0  0  0  0  0  0  0  0  0  0  0
    5.3444   -0.0000    0.0000 O   0  0  0  0  0  0  0  0  0  0  0  0
    3.8444    0.0000    0.0000 C   0  0  0  0  0  0  0  0  0  0  0  0
    3.5517   -1.4712    0.0000 C   0  0  0  0  0  0  0  0  0  0  0  0
    2.7184   -2.7184    0.0000 C   0  0  0  0  0  0  0  0  0  0  0  0
    3.7790   -3.7790    0.0000 O   0  0  0  0  0  0  0  0  0  0  0  0
    1.4712   -3.5517    0.0000 O   0  0  0  0  0  0  0  0  0  0  0  0
   -0.0000   -3.8444    0.0000 C   0  0  0  0  0  0  0  0  0  0  0  0
   -0.0000   -5.3444    0.0000 C   0  0  0  0  0  0  0  0  0  0  0  0
   -1.4712   -3.5517    0.0000 C   0  0  0  0  0  0  0  0  0  0  0  0
   -2.7184   -2.7184    0.0000 C   0  0  0  0  0  0  0  0  0  0  0  0
   -3.5517   -1.4712    0.0000 C   0  0  0  0  0  0  0  0  0  0  0  0
   -3.8444    0.0000    0.0000 C   0  0  0  0  0  0  0  0  0  0  0  0
   -3.5517    1.4712    0.0000 C   0  0  0  0  0  0  0  0  0  0  0  0
   -2.7184    2.7184    0.0000 C   0  0  0  0  0  0  0  0  0  0  0  0
   -3.7790    3.7790    0.0000 O   0  0  0  0  0  0  0  0  0  0  0  0
   -1.4712    3.5517    0.0000 C   0  0  0  0  0  0  0  0  0  0  0  0
   -2.0452    4.9376    0.0000 C   0  0  0  0  0  0  0  0  0  0  0  0
    0.0000    3.8444    0.0000 C   0  0  0  0  0  0  0  0  0  0  0  0
    1.4712    3.5517    0.0000 C   0  0  0  0  0  0  0  0  0  0  0  0
    2.0452    4.9376    0.0000 C   0  0  0  0  0  0  0  0  0  0  0  0
    3.5324    5.1333    0.0000 C   0  0  0  0  0  0  0  0  0  0  0  0
    4.1064    6.5192    0.0000 O   0  0  0  0  0  0  0  0  0  0  0  0
    2.7184    2.7184    0.0000 C   0  0  0  0  0  0  0  0  0  0  0  0
    3.7790    3.7790    0.0000 O   0  0  0  0  0  0  0  0  0  0  0  0
    5.2279    3.3908    0.0000 C   0  0  0  0  0  0  0  0  0  0  0  0
    5.6162    1.9419    0.0000 O   0  0  0  0  0  0  0  0  0  0  0  0
    7.0650    1.5537    0.0000 C   0  0  0  0  0  0  0  0  0  0  0  0
    7.4533    0.1048    0.0000 C   0  0  0  0  0  0  0  0  0  0  0  0
    8.1257    2.6144    0.0000 C   0  0  0  0  0  0  0  0  0  0  0  0
    9.5746    2.2261    0.0000 O   0  0  0  0  0  0  0  0  0  0  0  0
    9.9628    0.7772    0.0000 C   0  0  0  0  0  0  0  0  0  0  0  0
   11.4117    0.3890    0.0000 C   0  0  0  0  0  0  0  0  0  0  0  0
   11.7999   -1.0599    0.0000 C   0  0  0  0  0  0  0  0  0  0  0  0
   12.6603   -2.2886    0.0000 C   0  0  0  0  0  0  0  0  0  0  0  0
   13.1594   -0.4260    0.0000 O   0  0  0  0  0  0  0  0  0  0  0  0
   10.7393   -2.1205    0.0000 C   0  0  0  0  0  0  0  0  0  0  0  0
   11.1275   -3.5694    0.0000 O   0  0  0  0  0  0  0  0  0  0  0  0
   10.0669   -4.6301    0.0000 C   0  0  0  0  0  0  0  0  0  0  0  0
    8.6180   -4.2419    0.0000 O   0  0  0  0  0  0  0  0  0  0  0  0
   10.4551   -6.0790    0.0000 C   0  0  0  0  0  0  0  0  0  0  0  0
    9.3944   -7.1396    0.0000 C   0  0  0  0  0  0  0  0  0  0  0  0
    9.2904   -1.7323    0.0000 C   0  0  0  0  0  0  0  0  0  0  0  0
    8.2297   -2.7930    0.0000 C   0  0  0  0  0  0  0  0  0  0  0  0
    8.9022   -0.2834    0.0000 O   0  0  0  0  0  0  0  0  0  0  0  0
    7.7375    4.0632    0.0000 C   0  0  0  0  0  0  0  0  0  0  0  0
    8.7981    5.1239    0.0000 N   0  0  0  0  0  0  0  0  0  0  0  0
    8.4099    6.5728    0.0000 C   0  0  0  0  0  0  0  0  0  0  0  0
   10.2470    4.7357    0.0000 C   0  0  0  0  0  0  0  0  0  0  0  0
    6.2886    4.4515    0.0000 C   0  0  0  0  0  0  0  0  0  0  0  0
    5.9004    5.9004    0.0000 O   0  0  0  0  0  0  0  0  0  0  0  0
    3.5517    1.4712    0.0000 C   0  0  0  0  0  0  0  0  0  0  0  0
    4.9376    2.0452    0.0000 O   0  0  0  0  0  0  0  0  0  0  0  0
    6.1276    1.1321    0.0000 C   0  0  0  0  0  0  0  0  0  0  0  0
  1  2  1  0
  2  3  1  0
  3  4  2  0
  3  5  1  0
  6  5  1  6
  6  7  1  0
  7  8  1  0
  8  9  2  0
  8 10  1  0
 10 11  1  0
 11 12  1  6
 11 13  1  0
 13 14  1  0
 14 15  2  0
 15 16  1  0
 16 17  2  0
 17 18  1  0
 18 19  1  6
 18 20  1  0
 20 21  1  6
 20 22  1  0
 22 23  1  0
 23 24  1  6
 24 25  1  0
 25 26  2  0
 23 27  1  0
 27 28  1  1
 29 28  1  6
 29 30  1  0
 30 31  1  0
 31 32  1  6
 31 33  1  0
 33 34  1  6
 35 34  1  6
 35 36  1  0
 36 37  1  0
 37 38  1  1
 37 39  1  0
 37 40  1  0
 40 41  1  6
 41 42  1  0
 42 43  2  0
 42 44  1  0
 44 45  1  0
 40 46  1  0
 46 47  1  6
 46 48  1  0
 33 49  1  0
 49 50  1  6
 50 51  1  0
 50 52  1  0
 49 53  1  0
 53 54  1  1
 27 55  1  0
 55 56  1  6
 56 57  1  0
 55  6  1  0
 53 29  1  0
 48 35  1  0
M  END
>  <ChEMBL_IDs>  (138) 
CHEMBL1436846

>  <target_organism>  (138) 
nan

>  <target_molecule_pref_name>  (138) 
None

>  <# Known Targets>  (138) 
1.0

>  <Known Targets>  (138) 
CHEMBL1293227

>  <smiles>  (138) 
CCC(=O)O[C@@H]1CC(=O)O[C@H](C)C/C=C\C=C/[C@H](O)[C@H](C)C[C@H](CC=O)[C@@H](O[C@H]2O[C@@H](C)[C@@H](O[C@@H]3C[C@](C)(O)[C@H](OC(=O)CC)[C@H](C)O3)[C@@H](N(C)C)[C@@H]2O)[C@@H]1OC

$$$$

     RDKit          2D

 57 59  0  0  0  0  0  0  0  0999 V2000
   18.4042   -4.8111    0.0000 C   0  0  0  0  0  0  0  0  0  0  0  0
   17.0184   -4.2371    0.0000 C   0  0  0  0  0  0  0  0  0  0  0  0
   16.8226   -2.7499    0.0000 C   0  0  0  0  0  0  0  0  0  0  0  0
   15.4367   -2.1759    0.0000 C   0  0  0  0  0  0  0  0  0  0  0  0
   14.2467   -3.0890    0.0000 O   0  0  0  0  0  0  0  0  0  0  0  0
   15.2410   -0.6887    0.0000 O   0  0  0  0  0  0  0  0  0  0  0  0
   13.8551   -0.1147    0.0000 C   0  0  0  0  0  0  0  0  0  0  0  0
   12.6651   -1.0279    0.0000 C   0  0  0  0  0  0  0  0  0  0  0  0
   12.8609   -2.5150    0.0000 C   0  0  0  0  0  0  0  0  0  0  0  0
   11.2793   -0.4538    0.0000 O   0  0  0  0  0  0  0  0  0  0  0  0
   11.0835    1.0333    0.0000 C   0  0  0  0  0  0  0  0  0  0  0  0
    9.6977    1.6074    0.0000 O   0  0  0  0  0  0  0  0  0  0  0  0
    8.5076    0.6942    0.0000 C   0  0  0  0  0  0  0  0  0  0  0  0
    7.1218    1.2682    0.0000 C   0  0  0  0  0  0  0  0  0  0  0  0
    6.9260    2.7554    0.0000 N   0  0  0  0  0  0  0  0  0  0  0  0
    8.1161    3.6686    0.0000 C   0  0  0  0  0  0  0  0  0  0  0  0
    5.5402    3.3294    0.0000 C   0  0  0  0  0  0  0  0  0  0  0  0
    5.9318    0.3551    0.0000 C   0  0  0  0  0  0  0  0  0  0  0  0
    4.5460    0.9291    0.0000 O   0  0  0  0  0  0  0  0  0  0  0  0
    3.3559    0.0160    0.0000 C   0  0  0  0  0  0  0  0  0  0  0  0
    1.9701    0.5900    0.0000 C   0  0  0  0  0  0  0  0  0  0  0  0
    3.5517   -1.4712    0.0000 O   0  0  0  0  0  0  0  0  0  0  0  0
    6.1276   -1.1321    0.0000 C   0  0  0  0  0  0  0  0  0  0  0  0
    4.9376   -2.0452    0.0000 O   0  0  0  0  0  0  0  0  0  0  0  0
    5.1333   -3.5324    0.0000 C   0  0  0  0  0  0  0  0  0  0  0  0
    6.6301   -3.6305    0.0000 C   0  0  0  0  0  0  0  0  0  0  0  0
    7.0184   -2.1816    0.0000 O   0  0  0  0  0  0  0  0  0  0  0  0
    8.4673   -1.7934    0.0000 C   0  0  0  0  0  0  0  0  0  0  0  0
    7.9754   -4.2939    0.0000 C   0  0  0  0  0  0  0  0  0  0  0  0
    8.8886   -3.1039    0.0000 O   0  0  0  0  0  0  0  0  0  0  0  0
    8.9645   -5.4217    0.0000 C   0  0  0  0  0  0  0  0  0  0  0  0
    9.4466   -6.8421    0.0000 C   0  0  0  0  0  0  0  0  0  0  0  0
   10.9338   -6.6463    0.0000 O   0  0  0  0  0  0  0  0  0  0  0  0
    9.3485   -8.3389    0.0000 O   0  0  0  0  0  0  0  0  0  0  0  0
    8.6851   -9.6842    0.0000 C   0  0  0  0  0  0  0  0  0  0  0  0
    9.8751  -10.5973    0.0000 C   0  0  0  0  0  0  0  0  0  0  0  0
    7.5573  -10.6732    0.0000 C   0  0  0  0  0  0  0  0  0  0  0  0
    6.1369  -11.1553    0.0000 C   0  0  0  0  0  0  0  0  0  0  0  0
    4.6401  -11.0572    0.0000 C   0  0  0  0  0  0  0  0  0  0  0  0
    3.2948  -10.3938    0.0000 C   0  0  0  0  0  0  0  0  0  0  0  0
    2.3058   -9.2660    0.0000 C   0  0  0  0  0  0  0  0  0  0  0  0
    1.8237   -7.8456    0.0000 C   0  0  0  0  0  0  0  0  0  0  0  0
    0.3365   -8.0414    0.0000 O   0  0  0  0  0  0  0  0  0  0  0  0
    1.9218   -6.3489    0.0000 C   0  0  0  0  0  0  0  0  0  0  0  0
    0.4729   -5.9606    0.0000 C   0  0  0  0  0  0  0  0  0  0  0  0
    2.5852   -5.0035    0.0000 C   0  0  0  0  0  0  0  0  0  0  0  0
    3.7130   -4.0145    0.0000 C   0  0  0  0  0  0  0  0  0  0  0  0
    2.9630   -2.7155    0.0000 C   0  0  0  0  0  0  0  0  0  0  0  0
    1.4630   -2.7155    0.0000 C   0  0  0  0  0  0  0  0  0  0  0  0
    0.7130   -1.4165    0.0000 O   0  0  0  0  0  0  0  0  0  0  0  0
    7.5134   -1.7061    0.0000 O   0  0  0  0  0  0  0  0  0  0  0  0
    8.7034   -0.7929    0.0000 C   0  0  0  0  0  0  0  0  0  0  0  0
   10.0893   -1.3670    0.0000 C   0  0  0  0  0  0  0  0  0  0  0  0
   12.2735    1.9465    0.0000 C   0  0  0  0  0  0  0  0  0  0  0  0
   13.6593    1.3725    0.0000 C   0  0  0  0  0  0  0  0  0  0  0  0
   13.9840    2.8369    0.0000 C   0  0  0  0  0  0  0  0  0  0  0  0
   15.1579    1.3070    0.0000 O   0  0  0  0  0  0  0  0  0  0  0  0
  1  2  1  0
  2  3  1  0
  3  4  1  0
  4  5  2  0
  4  6  1  0
  7  6  1  1
  7  8  1  0
  8  9  1  6
  8 10  1  0
 10 11  1  0
 11 12  1  1
 13 12  1  6
 13 14  1  0
 14 15  1  1
 15 16  1  0
 15 17  1  0
 14 18  1  0
 18 19  1  6
 19 20  1  0
 20 21  1  0
 20 22  2  0
 18 23  1  0
 23 24  1  1
 25 24  1  6
 25 26  1  0
 26 27  1  1
 27 28  1  0
 26 29  1  0
 29 30  1  6
 29 31  1  0
 31 32  1  0
 32 33  2  0
 32 34  1  0
 34 35  1  0
 35 36  1  6
 35 37  1  0
 37 38  1  0
 38 39  2  0
 39 40  1  0
 40 41  2  0
 41 42  1  0
 42 43  1  6
 42 44  1  0
 44 45  1  6
 44 46  1  0
 46 47  1  0
 47 48  1  6
 48 49  1  0
 49 50  2  0
 23 51  1  0
 51 52  1  0
 52 53  1  1
 11 54  1  0
 54 55  1  0
 55 56  1  6
 55 57  1  0
 55  7  1  0
 52 13  1  0
 47 25  1  0
M  END
>  <ChEMBL_IDs>  (139) 
CHEMBL3251858

>  <target_organism>  (139) 
None

>  <target_molecule_pref_name>  (139) 
None

>  <# Known Targets>  (139) 
1.0

>  <Known Targets>  (139) 
CHEMBL612545

>  <smiles>  (139) 
CCCC(=O)O[C@H]1[C@H](C)O[C@@H](O[C@H]2[C@H](N(C)C)[C@@H](OC(C)=O)[C@H](O[C@@H]3[C@@H](OC)[C@H](O)CC(=O)O[C@H](C)C/C=C/C=C/[C@H](O)[C@H](C)C[C@@H]3CC=O)O[C@@H]2C)C[C@@]1(C)O

$$$$

     RDKit          2D

 57 59  0  0  0  0  0  0  0  0999 V2000
   16.4157   -9.6117    0.0000 C   0  0  0  0  0  0  0  0  0  0  0  0
   15.0299   -9.0377    0.0000 C   0  0  0  0  0  0  0  0  0  0  0  0
   13.8398   -9.9509    0.0000 C   0  0  0  0  0  0  0  0  0  0  0  0
   12.4540   -9.3768    0.0000 C   0  0  0  0  0  0  0  0  0  0  0  0
   12.2582   -7.8897    0.0000 O   0  0  0  0  0  0  0  0  0  0  0  0
   11.2640  -10.2900    0.0000 O   0  0  0  0  0  0  0  0  0  0  0  0
    9.8782   -9.7159    0.0000 C   0  0  0  0  0  0  0  0  0  0  0  0
    9.6824   -8.2288    0.0000 C   0  0  0  0  0  0  0  0  0  0  0  0
   10.8724   -7.3156    0.0000 C   0  0  0  0  0  0  0  0  0  0  0  0
    8.2966   -7.6548    0.0000 O   0  0  0  0  0  0  0  0  0  0  0  0
    7.1065   -8.5679    0.0000 C   0  0  0  0  0  0  0  0  0  0  0  0
    5.7207   -7.9939    0.0000 O   0  0  0  0  0  0  0  0  0  0  0  0
    5.5249   -6.5067    0.0000 C   0  0  0  0  0  0  0  0  0  0  0  0
    4.1391   -5.9327    0.0000 C   0  0  0  0  0  0  0  0  0  0  0  0
    2.9491   -6.8458    0.0000 C   0  0  0  0  0  0  0  0  0  0  0  0
    3.9433   -4.4455    0.0000 O   0  0  0  0  0  0  0  0  0  0  0  0
    5.1333   -3.5324    0.0000 C   0  0  0  0  0  0  0  0  0  0  0  0
    4.9376   -2.0452    0.0000 O   0  0  0  0  0  0  0  0  0  0  0  0
    3.5517   -1.4712    0.0000 C   0  0  0  0  0  0  0  0  0  0  0  0
    3.8444    0.0000    0.0000 C   0  0  0  0  0  0  0  0  0  0  0  0
    5.3444    0.0000    0.0000 O   0  0  0  0  0  0  0  0  0  0  0  0
    6.0944   -1.2990    0.0000 C   0  0  0  0  0  0  0  0  0  0  0  0
    3.5517    1.4712    0.0000 C   0  0  0  0  0  0  0  0  0  0  0  0
    4.9376    2.0452    0.0000 O   0  0  0  0  0  0  0  0  0  0  0  0
    5.1333    3.5324    0.0000 C   0  0  0  0  0  0  0  0  0  0  0  0
    6.5192    4.1064    0.0000 C   0  0  0  0  0  0  0  0  0  0  0  0
    3.9433    4.4455    0.0000 O   0  0  0  0  0  0  0  0  0  0  0  0
    2.7184    2.7184    0.0000 C   0  0  0  0  0  0  0  0  0  0  0  0
    1.4712    3.5517    0.0000 C   0  0  0  0  0  0  0  0  0  0  0  0
    2.0452    4.9376    0.0000 O   0  0  0  0  0  0  0  0  0  0  0  0
    0.0000    3.8444    0.0000 O   0  0  0  0  0  0  0  0  0  0  0  0
   -1.4712    3.5517    0.0000 C   0  0  0  0  0  0  0  0  0  0  0  0
   -2.0452    4.9376    0.0000 C   0  0  0  0  0  0  0  0  0  0  0  0
   -2.7184    2.7184    0.0000 C   0  0  0  0  0  0  0  0  0  0  0  0
   -3.5517    1.4712    0.0000 C   0  0  0  0  0  0  0  0  0  0  0  0
   -3.8444    0.0000    0.0000 C   0  0  0  0  0  0  0  0  0  0  0  0
   -3.5517   -1.4712    0.0000 C   0  0  0  0  0  0  0  0  0  0  0  0
   -2.7184   -2.7184    0.0000 C   0  0  0  0  0  0  0  0  0  0  0  0
   -1.4712   -3.5517    0.0000 C   0  0  0  0  0  0  0  0  0  0  0  0
   -2.0452   -4.9376    0.0000 O   0  0  0  0  0  0  0  0  0  0  0  0
   -0.0000   -3.8444    0.0000 C   0  0  0  0  0  0  0  0  0  0  0  0
   -0.0000   -5.3444    0.0000 C   0  0  0  0  0  0  0  0  0  0  0  0
    1.4712   -3.5517    0.0000 C   0  0  0  0  0  0  0  0  0  0  0  0
    2.7184   -2.7184    0.0000 C   0  0  0  0  0  0  0  0  0  0  0  0
    3.7790   -3.7790    0.0000 C   0  0  0  0  0  0  0  0  0  0  0  0
    3.3908   -5.2279    0.0000 C   0  0  0  0  0  0  0  0  0  0  0  0
    4.1633   -6.5137    0.0000 O   0  0  0  0  0  0  0  0  0  0  0  0
    6.5192   -4.1064    0.0000 C   0  0  0  0  0  0  0  0  0  0  0  0
    7.7092   -3.1933    0.0000 O   0  0  0  0  0  0  0  0  0  0  0  0
    6.7150   -5.5936    0.0000 C   0  0  0  0  0  0  0  0  0  0  0  0
    8.1008   -6.1676    0.0000 N   0  0  0  0  0  0  0  0  0  0  0  0
    9.2908   -5.2544    0.0000 C   0  0  0  0  0  0  0  0  0  0  0  0
    8.6506   -7.5632    0.0000 C   0  0  0  0  0  0  0  0  0  0  0  0
    7.3023  -10.0551    0.0000 C   0  0  0  0  0  0  0  0  0  0  0  0
    8.6881  -10.6291    0.0000 C   0  0  0  0  0  0  0  0  0  0  0  0
    7.8822  -11.8942    0.0000 C   0  0  0  0  0  0  0  0  0  0  0  0
    9.7941  -11.6425    0.0000 O   0  0  0  0  0  0  0  0  0  0  0  0
  1  2  1  0
  2  3  1  0
  3  4  1  0
  4  5  2  0
  4  6  1  0
  7  6  1  6
  7  8  1  0
  8  9  1  1
  8 10  1  0
 10 11  1  0
 11 12  1  6
 13 12  1  6
 13 14  1  0
 14 15  1  1
 14 16  1  0
 16 17  1  0
 17 18  1  1
 19 18  1  1
 19 20  1  0
 20 21  1  6
 21 22  1  0
 20 23  1  0
 23 24  1  1
 24 25  1  0
 25 26  1  0
 25 27  2  0
 23 28  1  0
 28 29  1  0
 29 30  2  0
 29 31  1  0
 31 32  1  0
 32 33  1  1
 32 34  1  0
 34 35  1  0
 35 36  2  0
 36 37  1  0
 37 38  2  0
 38 39  1  0
 39 40  1  1
 39 41  1  0
 41 42  1  1
 41 43  1  0
 43 44  1  0
 44 45  1  1
 45 46  1  0
 46 47  2  0
 17 48  1  0
 48 49  1  6
 48 50  1  0
 50 51  1  1
 51 52  1  0
 51 53  1  0
 11 54  1  0
 54 55  1  0
 55 56  1  1
 55 57  1  0
 55  7  1  0
 50 13  1  0
 44 19  1  0
M  END
>  <ChEMBL_IDs>  (140) 
CHEMBL3251852

>  <target_organism>  (140) 
None

>  <target_molecule_pref_name>  (140) 
None

>  <# Known Targets>  (140) 
1.0

>  <Known Targets>  (140) 
CHEMBL612545

>  <smiles>  (140) 
CCCC(=O)O[C@H]1[C@H](C)O[C@@H](O[C@@H]2[C@@H](C)O[C@@H](O[C@@H]3[C@@H](OC)[C@H](OC(C)=O)CC(=O)O[C@H](C)C/C=C/C=C/[C@H](O)[C@H](C)C[C@@H]3CC=O)[C@H](O)[C@H]2N(C)C)C[C@@]1(C)O

$$$$

     RDKit          2D

 54 56  0  0  0  0  0  0  0  0999 V2000
    8.6694   -0.7347    0.0000 C   0  0  0  0  0  0  0  0  0  0  0  0
    7.2006   -1.0391    0.0000 C   0  0  0  0  0  0  0  0  0  0  0  0
    5.9613   -0.1942    0.0000 C   0  0  0  0  0  0  0  0  0  0  0  0
    4.6098   -0.8450    0.0000 O   0  0  0  0  0  0  0  0  0  0  0  0
    3.3705    0.0000    0.0000 C   0  0  0  0  0  0  0  0  0  0  0  0
    4.6098    0.8450    0.0000 C   0  0  0  0  0  0  0  0  0  0  0  0
    3.0367   -1.4624    0.0000 C   0  0  0  0  0  0  0  0  0  0  0  0
    2.1015   -2.6351    0.0000 C   0  0  0  0  0  0  0  0  0  0  0  0
    3.0367   -3.8079    0.0000 C   0  0  0  0  0  0  0  0  0  0  0  0
    0.7500   -3.2860    0.0000 C   0  0  0  0  0  0  0  0  0  0  0  0
    1.0838   -4.7484    0.0000 O   0  0  0  0  0  0  0  0  0  0  0  0
   -0.7500   -3.2860    0.0000 C   0  0  0  0  0  0  0  0  0  0  0  0
   -1.0838   -4.7484    0.0000 C   0  0  0  0  0  0  0  0  0  0  0  0
   -2.1015   -2.6351    0.0000 C   0  0  0  0  0  0  0  0  0  0  0  0
   -3.0367   -3.8079    0.0000 O   0  0  0  0  0  0  0  0  0  0  0  0
   -3.0367   -1.4624    0.0000 C   0  0  0  0  0  0  0  0  0  0  0  0
   -3.7867   -2.7614    0.0000 C   0  0  0  0  0  0  0  0  0  0  0  0
   -4.5199   -1.2388    0.0000 O   0  0  0  0  0  0  0  0  0  0  0  0
   -3.3705    0.0000    0.0000 C   0  0  0  0  0  0  0  0  0  0  0  0
   -4.8705    0.0000    0.0000 C   0  0  0  0  0  0  0  0  0  0  0  0
   -5.6205    1.2990    0.0000 C   0  0  0  0  0  0  0  0  0  0  0  0
   -3.0367    1.4624    0.0000 O   0  0  0  0  0  0  0  0  0  0  0  0
   -2.1015    2.6351    0.0000 C   0  0  0  0  0  0  0  0  0  0  0  0
   -3.0367    3.8079    0.0000 O   0  0  0  0  0  0  0  0  0  0  0  0
   -0.7500    3.2860    0.0000 C   0  0  0  0  0  0  0  0  0  0  0  0
   -1.3600    4.4903    0.0000 C   0  0  0  0  0  0  0  0  0  0  0  0
    0.7500    3.2860    0.0000 C   0  0  0  0  0  0  0  0  0  0  0  0
    1.0838    4.7484    0.0000 O   0  0  0  0  0  0  0  0  0  0  0  0
   -0.0158    5.7686    0.0000 C   0  0  0  0  0  0  0  0  0  0  0  0
    0.3180    7.2310    0.0000 C   0  0  0  0  0  0  0  0  0  0  0  0
   -0.7816    8.2513    0.0000 C   0  0  0  0  0  0  0  0  0  0  0  0
   -1.4659    9.5861    0.0000 C   0  0  0  0  0  0  0  0  0  0  0  0
    0.4141    9.1570    0.0000 O   0  0  0  0  0  0  0  0  0  0  0  0
    0.2276   10.6453    0.0000 C   0  0  0  0  0  0  0  0  0  0  0  0
   -2.2150    7.8091    0.0000 C   0  0  0  0  0  0  0  0  0  0  0  0
   -3.3145    8.8294    0.0000 O   0  0  0  0  0  0  0  0  0  0  0  0
   -2.5487    6.3467    0.0000 C   0  0  0  0  0  0  0  0  0  0  0  0
   -3.9821    5.9046    0.0000 C   0  0  0  0  0  0  0  0  0  0  0  0
   -1.4492    5.3265    0.0000 O   0  0  0  0  0  0  0  0  0  0  0  0
    2.1015    2.6351    0.0000 C   0  0  0  0  0  0  0  0  0  0  0  0
    3.0367    3.8079    0.0000 C   0  0  0  0  0  0  0  0  0  0  0  0
    3.0367    1.4624    0.0000 C   0  0  0  0  0  0  0  0  0  0  0  0
    4.3881    2.1132    0.0000 O   0  0  0  0  0  0  0  0  0  0  0  0
    5.6275    1.2682    0.0000 C   0  0  0  0  0  0  0  0  0  0  0  0
    5.5154   -0.2276    0.0000 O   0  0  0  0  0  0  0  0  0  0  0  0
    6.7548   -1.0725    0.0000 C   0  0  0  0  0  0  0  0  0  0  0  0
    6.6427   -2.5684    0.0000 C   0  0  0  0  0  0  0  0  0  0  0  0
    8.1062   -0.4217    0.0000 C   0  0  0  0  0  0  0  0  0  0  0  0
    8.2183    1.0741    0.0000 C   0  0  0  0  0  0  0  0  0  0  0  0
    9.5698    1.7249    0.0000 N   0  0  0  0  0  0  0  0  0  0  0  0
   10.8091    0.8799    0.0000 C   0  0  0  0  0  0  0  0  0  0  0  0
    9.6819    3.2207    0.0000 C   0  0  0  0  0  0  0  0  0  0  0  0
    6.9790    1.9191    0.0000 C   0  0  0  0  0  0  0  0  0  0  0  0
    7.0910    3.4149    0.0000 O   0  0  0  0  0  0  0  0  0  0  0  0
  1  2  2  0
  2  3  1  0
  3  4  1  0
  4  5  1  0
  5  6  1  1
  5  7  1  0
  7  8  1  0
  8  9  1  1
  8 10  1  0
 10 11  2  0
 10 12  1  0
 12 13  1  6
 12 14  1  0
 14 15  1  1
 14 16  1  0
 16 17  1  1
 16 18  1  0
 16 19  1  0
 19 20  1  1
 20 21  1  0
 19 22  1  0
 22 23  1  0
 23 24  2  0
 23 25  1  0
 25 26  1  6
 25 27  1  0
 27 28  1  1
 29 28  1  6
 29 30  1  0
 30 31  1  0
 31 32  1  1
 31 33  1  0
 33 34  1  0
 31 35  1  0
 35 36  1  6
 35 37  1  0
 37 38  1  1
 37 39  1  0
 27 40  1  0
 40 41  1  6
 40 42  1  0
 42 43  1  1
 44 43  1  1
 44 45  1  0
 45 46  1  0
 46 47  1  1
 46 48  1  0
 48 49  1  0
 49 50  1  1
 50 51  1  0
 50 52  1  0
 49 53  1  0
 53 54  1  6
 42  5  1  0
 53 44  1  0
 39 29  1  0
M  END
>  <ChEMBL_IDs>  (141) 
CHEMBL335696

>  <target_organism>  (141) 
Hepatitis C virus,None

>  <target_molecule_pref_name>  (141) 
None

>  <# Known Targets>  (141) 
1.0

>  <Known Targets>  (141) 
CHEMBL347

>  <smiles>  (141) 
C=CCO[C@]1(C)C[C@@H](C)C(=O)[C@H](C)[C@@H](O)[C@](C)(O)[C@@H](CC)OC(=O)[C@H](C)[C@@H](O[C@H]2C[C@@](C)(OC)[C@@H](O)[C@H](C)O2)[C@H](C)[C@H]1O[C@@H]1O[C@H](C)C[C@H](N(C)C)[C@H]1O

$$$$

     RDKit          2D

 58 60  0  0  0  0  0  0  0  0999 V2000
   16.4157   -9.6117    0.0000 C   0  0  0  0  0  0  0  0  0  0  0  0
   15.0299   -9.0377    0.0000 C   0  0  0  0  0  0  0  0  0  0  0  0
   13.8398   -9.9509    0.0000 C   0  0  0  0  0  0  0  0  0  0  0  0
   12.4540   -9.3768    0.0000 C   0  0  0  0  0  0  0  0  0  0  0  0
   12.2582   -7.8897    0.0000 O   0  0  0  0  0  0  0  0  0  0  0  0
   11.2640  -10.2900    0.0000 O   0  0  0  0  0  0  0  0  0  0  0  0
    9.8782   -9.7159    0.0000 C   0  0  0  0  0  0  0  0  0  0  0  0
    9.6824   -8.2288    0.0000 C   0  0  0  0  0  0  0  0  0  0  0  0
   10.8724   -7.3156    0.0000 C   0  0  0  0  0  0  0  0  0  0  0  0
    8.2966   -7.6548    0.0000 O   0  0  0  0  0  0  0  0  0  0  0  0
    7.1065   -8.5679    0.0000 C   0  0  0  0  0  0  0  0  0  0  0  0
    5.7207   -7.9939    0.0000 O   0  0  0  0  0  0  0  0  0  0  0  0
    5.5249   -6.5067    0.0000 C   0  0  0  0  0  0  0  0  0  0  0  0
    4.1391   -5.9327    0.0000 C   0  0  0  0  0  0  0  0  0  0  0  0
    2.9491   -6.8458    0.0000 C   0  0  0  0  0  0  0  0  0  0  0  0
    3.9433   -4.4455    0.0000 O   0  0  0  0  0  0  0  0  0  0  0  0
    5.1333   -3.5324    0.0000 C   0  0  0  0  0  0  0  0  0  0  0  0
    4.9376   -2.0452    0.0000 O   0  0  0  0  0  0  0  0  0  0  0  0
    3.5517   -1.4712    0.0000 C   0  0  0  0  0  0  0  0  0  0  0  0
    3.8444    0.0000    0.0000 C   0  0  0  0  0  0  0  0  0  0  0  0
    5.3444    0.0000    0.0000 O   0  0  0  0  0  0  0  0  0  0  0  0
    6.0944   -1.2990    0.0000 C   0  0  0  0  0  0  0  0  0  0  0  0
    3.5517    1.4712    0.0000 C   0  0  0  0  0  0  0  0  0  0  0  0
    4.9376    2.0452    0.0000 O   0  0  0  0  0  0  0  0  0  0  0  0
    2.7184    2.7184    0.0000 C   0  0  0  0  0  0  0  0  0  0  0  0
    1.4712    3.5517    0.0000 C   0  0  0  0  0  0  0  0  0  0  0  0
    2.0452    4.9376    0.0000 O   0  0  0  0  0  0  0  0  0  0  0  0
    0.0000    3.8444    0.0000 O   0  0  0  0  0  0  0  0  0  0  0  0
   -1.4712    3.5517    0.0000 C   0  0  0  0  0  0  0  0  0  0  0  0
   -2.0452    4.9376    0.0000 C   0  0  0  0  0  0  0  0  0  0  0  0
   -2.7184    2.7184    0.0000 C   0  0  0  0  0  0  0  0  0  0  0  0
   -3.5517    1.4712    0.0000 C   0  0  0  0  0  0  0  0  0  0  0  0
   -3.8444    0.0000    0.0000 C   0  0  0  0  0  0  0  0  0  0  0  0
   -3.5517   -1.4712    0.0000 C   0  0  0  0  0  0  0  0  0  0  0  0
   -2.7184   -2.7184    0.0000 C   0  0  0  0  0  0  0  0  0  0  0  0
   -1.4712   -3.5517    0.0000 C   0  0  0  0  0  0  0  0  0  0  0  0
   -2.0452   -4.9376    0.0000 O   0  0  0  0  0  0  0  0  0  0  0  0
   -3.5324   -5.1333    0.0000 C   0  0  0  0  0  0  0  0  0  0  0  0
   -4.4455   -3.9433    0.0000 O   0  0  0  0  0  0  0  0  0  0  0  0
   -4.1064   -6.5192    0.0000 C   0  0  0  0  0  0  0  0  0  0  0  0
   -5.5936   -6.7150    0.0000 Cl  0  0  0  0  0  0  0  0  0  0  0  0
   -0.0000   -3.8444    0.0000 C   0  0  0  0  0  0  0  0  0  0  0  0
   -0.0000   -5.3444    0.0000 C   0  0  0  0  0  0  0  0  0  0  0  0
    1.4712   -3.5517    0.0000 C   0  0  0  0  0  0  0  0  0  0  0  0
    2.7184   -2.7184    0.0000 C   0  0  0  0  0  0  0  0  0  0  0  0
    3.7790   -3.7790    0.0000 C   0  0  0  0  0  0  0  0  0  0  0  0
    3.3908   -5.2279    0.0000 C   0  0  0  0  0  0  0  0  0  0  0  0
    4.1633   -6.5137    0.0000 O   0  0  0  0  0  0  0  0  0  0  0  0
    6.5192   -4.1064    0.0000 C   0  0  0  0  0  0  0  0  0  0  0  0
    7.7092   -3.1933    0.0000 O   0  0  0  0  0  0  0  0  0  0  0  0
    6.7150   -5.5936    0.0000 C   0  0  0  0  0  0  0  0  0  0  0  0
    8.1008   -6.1676    0.0000 N   0  0  0  0  0  0  0  0  0  0  0  0
    9.2908   -5.2544    0.0000 C   0  0  0  0  0  0  0  0  0  0  0  0
    8.6506   -7.5632    0.0000 C   0  0  0  0  0  0  0  0  0  0  0  0
    7.3023  -10.0551    0.0000 C   0  0  0  0  0  0  0  0  0  0  0  0
    8.6881  -10.6291    0.0000 C   0  0  0  0  0  0  0  0  0  0  0  0
    7.8822  -11.8942    0.0000 C   0  0  0  0  0  0  0  0  0  0  0  0
    9.7941  -11.6425    0.0000 O   0  0  0  0  0  0  0  0  0  0  0  0
  1  2  1  0
  2  3  1  0
  3  4  1  0
  4  5  2  0
  4  6  1  0
  7  6  1  6
  7  8  1  0
  8  9  1  1
  8 10  1  0
 10 11  1  0
 11 12  1  6
 13 12  1  6
 13 14  1  0
 14 15  1  1
 14 16  1  0
 16 17  1  0
 17 18  1  1
 19 18  1  1
 19 20  1  0
 20 21  1  6
 21 22  1  0
 20 23  1  0
 23 24  1  1
 23 25  1  0
 25 26  1  0
 26 27  2  0
 26 28  1  0
 28 29  1  0
 29 30  1  1
 29 31  1  0
 31 32  1  0
 32 33  2  0
 33 34  1  0
 34 35  2  0
 35 36  1  0
 36 37  1  1
 37 38  1  0
 38 39  2  0
 38 40  1  0
 40 41  1  0
 36 42  1  0
 42 43  1  1
 42 44  1  0
 44 45  1  0
 45 46  1  1
 46 47  1  0
 47 48  2  0
 17 49  1  0
 49 50  1  6
 49 51  1  0
 51 52  1  1
 52 53  1  0
 52 54  1  0
 11 55  1  0
 55 56  1  0
 56 57  1  1
 56 58  1  0
 56  7  1  0
 51 13  1  0
 45 19  1  0
M  END
>  <ChEMBL_IDs>  (142) 
CHEMBL3244602

>  <target_organism>  (142) 
None

>  <target_molecule_pref_name>  (142) 
None

>  <# Known Targets>  (142) 
1.0

>  <Known Targets>  (142) 
CHEMBL612545

>  <smiles>  (142) 
CCCC(=O)O[C@H]1[C@H](C)O[C@@H](O[C@@H]2[C@@H](C)O[C@@H](O[C@@H]3[C@@H](OC)[C@H](O)CC(=O)O[C@H](C)C/C=C/C=C/[C@H](OC(=O)CCl)[C@H](C)C[C@@H]3CC=O)[C@H](O)[C@H]2N(C)C)C[C@@]1(C)O

$$$$

     RDKit          2D

 59 61  0  0  0  0  0  0  0  0999 V2000
   16.4157   -9.6117    0.0000 C   0  0  0  0  0  0  0  0  0  0  0  0
   15.0299   -9.0377    0.0000 C   0  0  0  0  0  0  0  0  0  0  0  0
   13.8398   -9.9509    0.0000 C   0  0  0  0  0  0  0  0  0  0  0  0
   12.4540   -9.3768    0.0000 C   0  0  0  0  0  0  0  0  0  0  0  0
   12.2582   -7.8897    0.0000 O   0  0  0  0  0  0  0  0  0  0  0  0
   11.2640  -10.2900    0.0000 O   0  0  0  0  0  0  0  0  0  0  0  0
    9.8782   -9.7159    0.0000 C   0  0  0  0  0  0  0  0  0  0  0  0
    9.6824   -8.2288    0.0000 C   0  0  0  0  0  0  0  0  0  0  0  0
   10.8724   -7.3156    0.0000 C   0  0  0  0  0  0  0  0  0  0  0  0
    8.2966   -7.6548    0.0000 O   0  0  0  0  0  0  0  0  0  0  0  0
    7.1065   -8.5679    0.0000 C   0  0  0  0  0  0  0  0  0  0  0  0
    5.7207   -7.9939    0.0000 O   0  0  0  0  0  0  0  0  0  0  0  0
    5.5249   -6.5067    0.0000 C   0  0  0  0  0  0  0  0  0  0  0  0
    4.1391   -5.9327    0.0000 C   0  0  0  0  0  0  0  0  0  0  0  0
    2.9491   -6.8458    0.0000 C   0  0  0  0  0  0  0  0  0  0  0  0
    3.9433   -4.4455    0.0000 O   0  0  0  0  0  0  0  0  0  0  0  0
    5.1333   -3.5324    0.0000 C   0  0  0  0  0  0  0  0  0  0  0  0
    4.9376   -2.0452    0.0000 O   0  0  0  0  0  0  0  0  0  0  0  0
    3.5517   -1.4712    0.0000 C   0  0  0  0  0  0  0  0  0  0  0  0
    3.8444    0.0000    0.0000 C   0  0  0  0  0  0  0  0  0  0  0  0
    5.3444    0.0000    0.0000 O   0  0  0  0  0  0  0  0  0  0  0  0
    6.0944   -1.2990    0.0000 C   0  0  0  0  0  0  0  0  0  0  0  0
    3.5517    1.4712    0.0000 C   0  0  0  0  0  0  0  0  0  0  0  0
    4.9376    2.0452    0.0000 O   0  0  0  0  0  0  0  0  0  0  0  0
    2.7184    2.7184    0.0000 C   0  0  0  0  0  0  0  0  0  0  0  0
    1.4712    3.5517    0.0000 C   0  0  0  0  0  0  0  0  0  0  0  0
    2.0452    4.9376    0.0000 O   0  0  0  0  0  0  0  0  0  0  0  0
    0.0000    3.8444    0.0000 O   0  0  0  0  0  0  0  0  0  0  0  0
   -1.4712    3.5517    0.0000 C   0  0  0  0  0  0  0  0  0  0  0  0
   -2.0452    4.9376    0.0000 C   0  0  0  0  0  0  0  0  0  0  0  0
   -2.7184    2.7184    0.0000 C   0  0  0  0  0  0  0  0  0  0  0  0
   -3.5517    1.4712    0.0000 C   0  0  0  0  0  0  0  0  0  0  0  0
   -3.8444    0.0000    0.0000 C   0  0  0  0  0  0  0  0  0  0  0  0
   -3.5517   -1.4712    0.0000 C   0  0  0  0  0  0  0  0  0  0  0  0
   -2.7184   -2.7184    0.0000 C   0  0  0  0  0  0  0  0  0  0  0  0
   -1.4712   -3.5517    0.0000 C   0  0  0  0  0  0  0  0  0  0  0  0
   -2.0452   -4.9376    0.0000 O   0  0  0  0  0  0  0  0  0  0  0  0
   -3.5324   -5.1333    0.0000 C   0  0  0  0  0  0  0  0  0  0  0  0
   -4.4455   -3.9433    0.0000 O   0  0  0  0  0  0  0  0  0  0  0  0
   -4.1064   -6.5192    0.0000 C   0  0  0  0  0  0  0  0  0  0  0  0
   -5.5936   -6.7150    0.0000 Cl  0  0  0  0  0  0  0  0  0  0  0  0
   -3.1933   -7.7092    0.0000 Cl  0  0  0  0  0  0  0  0  0  0  0  0
   -0.0000   -3.8444    0.0000 C   0  0  0  0  0  0  0  0  0  0  0  0
   -0.0000   -5.3444    0.0000 C   0  0  0  0  0  0  0  0  0  0  0  0
    1.4712   -3.5517    0.0000 C   0  0  0  0  0  0  0  0  0  0  0  0
    2.7184   -2.7184    0.0000 C   0  0  0  0  0  0  0  0  0  0  0  0
    3.7790   -3.7790    0.0000 C   0  0  0  0  0  0  0  0  0  0  0  0
    3.3908   -5.2279    0.0000 C   0  0  0  0  0  0  0  0  0  0  0  0
    4.1633   -6.5137    0.0000 O   0  0  0  0  0  0  0  0  0  0  0  0
    6.5192   -4.1064    0.0000 C   0  0  0  0  0  0  0  0  0  0  0  0
    7.7092   -3.1933    0.0000 O   0  0  0  0  0  0  0  0  0  0  0  0
    6.7150   -5.5936    0.0000 C   0  0  0  0  0  0  0  0  0  0  0  0
    8.1008   -6.1676    0.0000 N   0  0  0  0  0  0  0  0  0  0  0  0
    9.2908   -5.2544    0.0000 C   0  0  0  0  0  0  0  0  0  0  0  0
    8.6506   -7.5632    0.0000 C   0  0  0  0  0  0  0  0  0  0  0  0
    7.3023  -10.0551    0.0000 C   0  0  0  0  0  0  0  0  0  0  0  0
    8.6881  -10.6291    0.0000 C   0  0  0  0  0  0  0  0  0  0  0  0
    7.8822  -11.8942    0.0000 C   0  0  0  0  0  0  0  0  0  0  0  0
    9.7941  -11.6425    0.0000 O   0  0  0  0  0  0  0  0  0  0  0  0
  1  2  1  0
  2  3  1  0
  3  4  1  0
  4  5  2  0
  4  6  1  0
  7  6  1  6
  7  8  1  0
  8  9  1  1
  8 10  1  0
 10 11  1  0
 11 12  1  6
 13 12  1  6
 13 14  1  0
 14 15  1  1
 14 16  1  0
 16 17  1  0
 17 18  1  1
 19 18  1  1
 19 20  1  0
 20 21  1  6
 21 22  1  0
 20 23  1  0
 23 24  1  1
 23 25  1  0
 25 26  1  0
 26 27  2  0
 26 28  1  0
 28 29  1  0
 29 30  1  1
 29 31  1  0
 31 32  1  0
 32 33  2  0
 33 34  1  0
 34 35  2  0
 35 36  1  0
 36 37  1  1
 37 38  1  0
 38 39  2  0
 38 40  1  0
 40 41  1  0
 40 42  1  0
 36 43  1  0
 43 44  1  1
 43 45  1  0
 45 46  1  0
 46 47  1  1
 47 48  1  0
 48 49  2  0
 17 50  1  0
 50 51  1  6
 50 52  1  0
 52 53  1  1
 53 54  1  0
 53 55  1  0
 11 56  1  0
 56 57  1  0
 57 58  1  1
 57 59  1  0
 57  7  1  0
 52 13  1  0
 46 19  1  0
M  END
>  <ChEMBL_IDs>  (143) 
CHEMBL3244603

>  <target_organism>  (143) 
None

>  <target_molecule_pref_name>  (143) 
None

>  <# Known Targets>  (143) 
1.0

>  <Known Targets>  (143) 
CHEMBL612545

>  <smiles>  (143) 
CCCC(=O)O[C@H]1[C@H](C)O[C@@H](O[C@@H]2[C@@H](C)O[C@@H](O[C@@H]3[C@@H](OC)[C@H](O)CC(=O)O[C@H](C)C/C=C/C=C/[C@H](OC(=O)C(Cl)Cl)[C@H](C)C[C@@H]3CC=O)[C@H](O)[C@H]2N(C)C)C[C@@]1(C)O

$$$$

     RDKit          2D

 54 56  0  0  0  0  0  0  0  0999 V2000
    7.3573    1.2990    0.0000 C   0  0  0  0  0  0  0  0  0  0  0  0
    5.8573    1.2990    0.0000 C   0  0  0  0  0  0  0  0  0  0  0  0
    5.1073    0.0000    0.0000 C   0  0  0  0  0  0  0  0  0  0  0  0
    3.6073    0.0000    0.0000 N   0  0  0  0  0  0  0  0  0  0  0  0
    3.2954    1.4672    0.0000 C   0  0  0  0  0  0  0  0  0  0  0  0
    2.4138    2.6807    0.0000 C   0  0  0  0  0  0  0  0  0  0  0  0
    3.4175    3.7955    0.0000 C   0  0  0  0  0  0  0  0  0  0  0  0
    1.1147    3.4307    0.0000 C   0  0  0  0  0  0  0  0  0  0  0  0
   -0.3771    3.5875    0.0000 C   0  0  0  0  0  0  0  0  0  0  0  0
   -1.3412    4.7366    0.0000 C   0  0  0  0  0  0  0  0  0  0  0  0
    0.3271    4.9120    0.0000 O   0  0  0  0  0  0  0  0  0  0  0  0
   -1.8037    3.1240    0.0000 C   0  0  0  0  0  0  0  0  0  0  0  0
   -2.5537    4.4231    0.0000 O   0  0  0  0  0  0  0  0  0  0  0  0
   -1.8037    5.7221    0.0000 C   0  0  0  0  0  0  0  0  0  0  0  0
   -0.3037    5.7221    0.0000 O   0  0  0  0  0  0  0  0  0  0  0  0
    0.4463    7.0211    0.0000 C   0  0  0  0  0  0  0  0  0  0  0  0
    1.9463    7.0211    0.0000 C   0  0  0  0  0  0  0  0  0  0  0  0
   -0.3037    8.3202    0.0000 C   0  0  0  0  0  0  0  0  0  0  0  0
   -1.8037    8.3202    0.0000 C   0  0  0  0  0  0  0  0  0  0  0  0
   -2.5537    9.6192    0.0000 N   0  0  0  0  0  0  0  0  0  0  0  0
   -1.8037   10.9182    0.0000 C   0  0  0  0  0  0  0  0  0  0  0  0
   -4.0537    9.6192    0.0000 C   0  0  0  0  0  0  0  0  0  0  0  0
   -2.5537    7.0211    0.0000 C   0  0  0  0  0  0  0  0  0  0  0  0
   -4.0537    7.0211    0.0000 O   0  0  0  0  0  0  0  0  0  0  0  0
   -2.9184    2.1203    0.0000 C   0  0  0  0  0  0  0  0  0  0  0  0
   -4.1319    3.0020    0.0000 C   0  0  0  0  0  0  0  0  0  0  0  0
   -3.5285    0.7500    0.0000 C   0  0  0  0  0  0  0  0  0  0  0  0
   -4.9957    1.0619    0.0000 O   0  0  0  0  0  0  0  0  0  0  0  0
   -5.9994   -0.0528    0.0000 C   0  0  0  0  0  0  0  0  0  0  0  0
   -7.4666    0.2590    0.0000 C   0  0  0  0  0  0  0  0  0  0  0  0
   -8.4703   -0.8557    0.0000 C   0  0  0  0  0  0  0  0  0  0  0  0
   -9.7947   -1.5599    0.0000 C   0  0  0  0  0  0  0  0  0  0  0  0
   -9.3938    0.3263    0.0000 O   0  0  0  0  0  0  0  0  0  0  0  0
  -10.8792    0.1176    0.0000 C   0  0  0  0  0  0  0  0  0  0  0  0
   -8.0068   -2.2823    0.0000 C   0  0  0  0  0  0  0  0  0  0  0  0
   -9.0105   -3.3970    0.0000 O   0  0  0  0  0  0  0  0  0  0  0  0
   -6.5396   -2.5942    0.0000 C   0  0  0  0  0  0  0  0  0  0  0  0
   -6.0760   -4.0207    0.0000 C   0  0  0  0  0  0  0  0  0  0  0  0
   -5.5359   -1.4794    0.0000 O   0  0  0  0  0  0  0  0  0  0  0  0
   -3.5285   -0.7500    0.0000 C   0  0  0  0  0  0  0  0  0  0  0  0
   -4.7418   -1.3419    0.0000 C   0  0  0  0  0  0  0  0  0  0  0  0
   -2.9184   -2.1203    0.0000 C   0  0  0  0  0  0  0  0  0  0  0  0
   -4.1319   -3.0020    0.0000 O   0  0  0  0  0  0  0  0  0  0  0  0
   -1.8037   -3.1240    0.0000 O   0  0  0  0  0  0  0  0  0  0  0  0
   -0.3771   -3.5875    0.0000 C   0  0  0  0  0  0  0  0  0  0  0  0
   -0.5339   -5.0793    0.0000 C   0  0  0  0  0  0  0  0  0  0  0  0
   -1.9042   -5.6894    0.0000 C   0  0  0  0  0  0  0  0  0  0  0  0
    1.1147   -3.4307    0.0000 C   0  0  0  0  0  0  0  0  0  0  0  0
    2.2967   -4.3542    0.0000 C   0  0  0  0  0  0  0  0  0  0  0  0
    0.7013   -4.8726    0.0000 O   0  0  0  0  0  0  0  0  0  0  0  0
    2.4138   -2.6807    0.0000 C   0  0  0  0  0  0  0  0  0  0  0  0
    3.4175   -3.7955    0.0000 O   0  0  0  0  0  0  0  0  0  0  0  0
    3.2954   -1.4672    0.0000 C   0  0  0  0  0  0  0  0  0  0  0  0
    4.6658   -2.0773    0.0000 C   0  0  0  0  0  0  0  0  0  0  0  0
  1  2  1  0
  2  3  1  0
  3  4  1  0
  4  5  1  0
  5  6  1  0
  6  7  1  1
  6  8  1  0
  8  9  1  0
  9 10  1  1
  9 11  1  0
  9 12  1  0
 12 13  1  1
 14 13  1  1
 14 15  1  0
 15 16  1  0
 16 17  1  1
 16 18  1  0
 18 19  1  0
 19 20  1  1
 20 21  1  0
 20 22  1  0
 19 23  1  0
 23 24  1  6
 12 25  1  0
 25 26  1  6
 25 27  1  0
 27 28  1  1
 29 28  1  6
 29 30  1  0
 30 31  1  0
 31 32  1  1
 31 33  1  0
 33 34  1  0
 31 35  1  0
 35 36  1  6
 35 37  1  0
 37 38  1  1
 37 39  1  0
 27 40  1  0
 40 41  1  6
 40 42  1  0
 42 43  2  0
 42 44  1  0
 44 45  1  0
 45 46  1  1
 46 47  1  0
 45 48  1  0
 48 49  1  1
 48 50  1  0
 48 51  1  0
 51 52  1  1
 51 53  1  0
 53 54  1  6
 53  4  1  0
 23 14  1  0
 39 29  1  0
M  END
>  <ChEMBL_IDs>  (144) 
CHEMBL1774290

>  <target_organism>  (144) 
Homo sapiens,None,Escherichia coli K-12

>  <target_molecule_pref_name>  (144) 
None

>  <# Known Targets>  (144) 
1.0

>  <Known Targets>  (144) 
CHEMBL612888

>  <smiles>  (144) 
CCCN1C[C@H](C)C[C@@](C)(O)[C@H](O[C@@H]2O[C@H](C)C[C@H](N(C)C)[C@H]2O)[C@@H](C)[C@H](O[C@H]2C[C@@](C)(OC)[C@@H](O)[C@H](C)O2)[C@@H](C)C(=O)O[C@H](CC)[C@@](C)(O)[C@H](O)[C@H]1C

$$$$

     RDKit          2D

 55 57  0  0  0  0  0  0  0  0999 V2000
    5.6205   -1.2990    0.0000 C   0  0  0  0  0  0  0  0  0  0  0  0
    4.8705    0.0000    0.0000 C   0  0  0  0  0  0  0  0  0  0  0  0
    3.3705    0.0000    0.0000 C   0  0  0  0  0  0  0  0  0  0  0  0
    3.0367   -1.4624    0.0000 O   0  0  0  0  0  0  0  0  0  0  0  0
    2.1015   -2.6351    0.0000 C   0  0  0  0  0  0  0  0  0  0  0  0
    3.0367   -3.8079    0.0000 O   0  0  0  0  0  0  0  0  0  0  0  0
    0.7500   -3.2860    0.0000 C   0  0  0  0  0  0  0  0  0  0  0  0
    1.3600   -4.4903    0.0000 C   0  0  0  0  0  0  0  0  0  0  0  0
   -0.7500   -3.2860    0.0000 C   0  0  0  0  0  0  0  0  0  0  0  0
   -1.0838   -4.7484    0.0000 O   0  0  0  0  0  0  0  0  0  0  0  0
    0.0158   -5.7686    0.0000 C   0  0  0  0  0  0  0  0  0  0  0  0
   -0.3180   -7.2310    0.0000 C   0  0  0  0  0  0  0  0  0  0  0  0
    0.7816   -8.2513    0.0000 C   0  0  0  0  0  0  0  0  0  0  0  0
    1.4659   -9.5861    0.0000 C   0  0  0  0  0  0  0  0  0  0  0  0
   -0.4141   -9.1570    0.0000 O   0  0  0  0  0  0  0  0  0  0  0  0
   -0.2276  -10.6453    0.0000 C   0  0  0  0  0  0  0  0  0  0  0  0
    2.2150   -7.8091    0.0000 C   0  0  0  0  0  0  0  0  0  0  0  0
    3.3145   -8.8294    0.0000 O   0  0  0  0  0  0  0  0  0  0  0  0
    2.5487   -6.3467    0.0000 C   0  0  0  0  0  0  0  0  0  0  0  0
    3.9821   -5.9046    0.0000 C   0  0  0  0  0  0  0  0  0  0  0  0
    1.4492   -5.3265    0.0000 O   0  0  0  0  0  0  0  0  0  0  0  0
   -2.1015   -2.6351    0.0000 C   0  0  0  0  0  0  0  0  0  0  0  0
   -3.0367   -3.8079    0.0000 C   0  0  0  0  0  0  0  0  0  0  0  0
   -3.0367   -1.4624    0.0000 C   0  0  0  0  0  0  0  0  0  0  0  0
   -4.3881   -2.1132    0.0000 O   0  0  0  0  0  0  0  0  0  0  0  0
   -5.6275   -1.2682    0.0000 C   0  0  0  0  0  0  0  0  0  0  0  0
   -5.5154    0.2276    0.0000 O   0  0  0  0  0  0  0  0  0  0  0  0
   -6.7548    1.0725    0.0000 C   0  0  0  0  0  0  0  0  0  0  0  0
   -6.6427    2.5684    0.0000 C   0  0  0  0  0  0  0  0  0  0  0  0
   -8.1062    0.4217    0.0000 C   0  0  0  0  0  0  0  0  0  0  0  0
   -8.2183   -1.0741    0.0000 C   0  0  0  0  0  0  0  0  0  0  0  0
   -9.5698   -1.7249    0.0000 N   0  0  0  0  0  0  0  0  0  0  0  0
  -10.8091   -0.8799    0.0000 C   0  0  0  0  0  0  0  0  0  0  0  0
   -9.6819   -3.2207    0.0000 C   0  0  0  0  0  0  0  0  0  0  0  0
  -11.0333   -3.8715    0.0000 C   0  0  0  0  0  0  0  0  0  0  0  0
  -11.6841   -2.5201    0.0000 C   0  0  0  0  0  0  0  0  0  0  0  0
  -10.3825   -5.2230    0.0000 C   0  0  0  0  0  0  0  0  0  0  0  0
  -12.3848   -4.5224    0.0000 O   0  0  0  0  0  0  0  0  0  0  0  0
   -6.9790   -1.9191    0.0000 C   0  0  0  0  0  0  0  0  0  0  0  0
   -7.0910   -3.4149    0.0000 O   0  0  0  0  0  0  0  0  0  0  0  0
   -3.3705    0.0000    0.0000 C   0  0  0  0  0  0  0  0  0  0  0  0
   -4.6098   -0.8450    0.0000 C   0  0  0  0  0  0  0  0  0  0  0  0
   -4.6098    0.8450    0.0000 O   0  0  0  0  0  0  0  0  0  0  0  0
   -3.0367    1.4624    0.0000 C   0  0  0  0  0  0  0  0  0  0  0  0
   -2.1015    2.6351    0.0000 C   0  0  0  0  0  0  0  0  0  0  0  0
   -3.0367    3.8079    0.0000 C   0  0  0  0  0  0  0  0  0  0  0  0
   -0.7500    3.2860    0.0000 C   0  0  0  0  0  0  0  0  0  0  0  0
   -1.0838    4.7484    0.0000 O   0  0  0  0  0  0  0  0  0  0  0  0
    0.7500    3.2860    0.0000 C   0  0  0  0  0  0  0  0  0  0  0  0
    1.0838    4.7484    0.0000 C   0  0  0  0  0  0  0  0  0  0  0  0
    2.1015    2.6351    0.0000 C   0  0  0  0  0  0  0  0  0  0  0  0
    3.0367    3.8079    0.0000 O   0  0  0  0  0  0  0  0  0  0  0  0
    3.0367    1.4624    0.0000 C   0  0  0  0  0  0  0  0  0  0  0  0
    3.7867    2.7614    0.0000 C   0  0  0  0  0  0  0  0  0  0  0  0
    4.5199    1.2388    0.0000 O   0  0  0  0  0  0  0  0  0  0  0  0
  1  2  1  0
  3  2  1  1
  3  4  1  0
  4  5  1  0
  5  6  2  0
  5  7  1  0
  7  8  1  6
  7  9  1  0
  9 10  1  1
 11 10  1  1
 11 12  1  0
 12 13  1  0
 13 14  1  1
 13 15  1  0
 15 16  1  0
 13 17  1  0
 17 18  1  6
 17 19  1  0
 19 20  1  1
 19 21  1  0
  9 22  1  0
 22 23  1  6
 22 24  1  0
 24 25  1  1
 26 25  1  1
 26 27  1  0
 27 28  1  0
 28 29  1  1
 28 30  1  0
 30 31  1  0
 31 32  1  1
 32 33  1  0
 32 34  1  0
 34 35  1  0
 35 36  1  0
 35 37  1  0
 35 38  1  0
 31 39  1  0
 39 40  1  6
 24 41  1  0
 41 42  1  1
 41 43  1  0
 41 44  1  0
 44 45  1  0
 45 46  1  1
 45 47  1  0
 47 48  1  6
 47 49  1  0
 49 50  1  6
 49 51  1  0
 51 52  1  1
 51 53  1  0
 53 54  1  1
 53 55  1  0
 53  3  1  0
 21 11  1  0
 39 26  1  0
M  END
>  <ChEMBL_IDs>  (145) 
CHEMBL1256547

>  <target_organism>  (145) 
nan

>  <target_molecule_pref_name>  (145) 
None

>  <# Known Targets>  (145) 
1.0

>  <Known Targets>  (145) 
CHEMBL5306

>  <smiles>  (145) 
CC[C@H]1OC(=O)[C@H](C)[C@@H](O[C@@H]2C[C@@](C)(OC)[C@@H](O)[C@H](C)O2)[C@H](C)[C@@H](O[C@@H]2O[C@H](C)C[C@H](N(C)CC(C)(C)O)[C@H]2O)[C@](C)(O)C[C@@H](C)[C@H](O)[C@H](C)[C@@H](O)[C@]1(C)O

$$$$

     RDKit          2D

 55 57  0  0  0  0  0  0  0  0999 V2000
    5.6205   -1.2990    0.0000 C   0  0  0  0  0  0  0  0  0  0  0  0
    4.8705    0.0000    0.0000 C   0  0  0  0  0  0  0  0  0  0  0  0
    3.3705    0.0000    0.0000 C   0  0  0  0  0  0  0  0  0  0  0  0
    3.0367   -1.4624    0.0000 O   0  0  0  0  0  0  0  0  0  0  0  0
    2.1015   -2.6351    0.0000 C   0  0  0  0  0  0  0  0  0  0  0  0
    3.0367   -3.8079    0.0000 O   0  0  0  0  0  0  0  0  0  0  0  0
    0.7500   -3.2860    0.0000 C   0  0  0  0  0  0  0  0  0  0  0  0
    1.3600   -4.4903    0.0000 C   0  0  0  0  0  0  0  0  0  0  0  0
   -0.7500   -3.2860    0.0000 C   0  0  0  0  0  0  0  0  0  0  0  0
   -1.0838   -4.7484    0.0000 O   0  0  0  0  0  0  0  0  0  0  0  0
    0.0158   -5.7686    0.0000 C   0  0  0  0  0  0  0  0  0  0  0  0
   -0.3180   -7.2310    0.0000 C   0  0  0  0  0  0  0  0  0  0  0  0
    0.7816   -8.2513    0.0000 C   0  0  0  0  0  0  0  0  0  0  0  0
    1.4659   -9.5861    0.0000 C   0  0  0  0  0  0  0  0  0  0  0  0
   -0.4141   -9.1570    0.0000 O   0  0  0  0  0  0  0  0  0  0  0  0
   -0.2276  -10.6453    0.0000 C   0  0  0  0  0  0  0  0  0  0  0  0
    2.2150   -7.8091    0.0000 C   0  0  0  0  0  0  0  0  0  0  0  0
    3.3145   -8.8294    0.0000 O   0  0  0  0  0  0  0  0  0  0  0  0
    2.5487   -6.3467    0.0000 C   0  0  0  0  0  0  0  0  0  0  0  0
    3.9821   -5.9046    0.0000 C   0  0  0  0  0  0  0  0  0  0  0  0
    1.4492   -5.3265    0.0000 O   0  0  0  0  0  0  0  0  0  0  0  0
   -2.1015   -2.6351    0.0000 C   0  0  0  0  0  0  0  0  0  0  0  0
   -3.0367   -3.8079    0.0000 C   0  0  0  0  0  0  0  0  0  0  0  0
   -3.0367   -1.4624    0.0000 C   0  0  0  0  0  0  0  0  0  0  0  0
   -4.3881   -2.1132    0.0000 O   0  0  0  0  0  0  0  0  0  0  0  0
   -5.6275   -1.2682    0.0000 C   0  0  0  0  0  0  0  0  0  0  0  0
   -5.5154    0.2276    0.0000 O   0  0  0  0  0  0  0  0  0  0  0  0
   -6.7548    1.0725    0.0000 C   0  0  0  0  0  0  0  0  0  0  0  0
   -6.6427    2.5684    0.0000 C   0  0  0  0  0  0  0  0  0  0  0  0
   -8.1062    0.4217    0.0000 C   0  0  0  0  0  0  0  0  0  0  0  0
   -8.2183   -1.0741    0.0000 C   0  0  0  0  0  0  0  0  0  0  0  0
   -9.5698   -1.7249    0.0000 N   0  0  0  0  0  0  0  0  0  0  0  0
  -10.8091   -0.8799    0.0000 C   0  0  0  0  0  0  0  0  0  0  0  0
   -9.6819   -3.2207    0.0000 C   0  0  0  0  0  0  0  0  0  0  0  0
  -11.0333   -3.8715    0.0000 C   0  0  0  0  0  0  0  0  0  0  0  0
  -11.6841   -2.5201    0.0000 C   0  0  0  0  0  0  0  0  0  0  0  0
  -10.3825   -5.2230    0.0000 C   0  0  0  0  0  0  0  0  0  0  0  0
  -12.3848   -4.5224    0.0000 O   0  0  0  0  0  0  0  0  0  0  0  0
   -6.9790   -1.9191    0.0000 C   0  0  0  0  0  0  0  0  0  0  0  0
   -7.0910   -3.4149    0.0000 O   0  0  0  0  0  0  0  0  0  0  0  0
   -3.3705    0.0000    0.0000 C   0  0  0  0  0  0  0  0  0  0  0  0
   -4.6098   -0.8450    0.0000 C   0  0  0  0  0  0  0  0  0  0  0  0
   -4.6098    0.8450    0.0000 O   0  0  0  0  0  0  0  0  0  0  0  0
   -3.0367    1.4624    0.0000 C   0  0  0  0  0  0  0  0  0  0  0  0
   -2.1015    2.6351    0.0000 C   0  0  0  0  0  0  0  0  0  0  0  0
   -3.0367    3.8079    0.0000 C   0  0  0  0  0  0  0  0  0  0  0  0
   -0.7500    3.2860    0.0000 C   0  0  0  0  0  0  0  0  0  0  0  0
   -1.0838    4.7484    0.0000 O   0  0  0  0  0  0  0  0  0  0  0  0
    0.7500    3.2860    0.0000 C   0  0  0  0  0  0  0  0  0  0  0  0
    1.0838    4.7484    0.0000 C   0  0  0  0  0  0  0  0  0  0  0  0
    2.1015    2.6351    0.0000 C   0  0  0  0  0  0  0  0  0  0  0  0
    3.0367    3.8079    0.0000 O   0  0  0  0  0  0  0  0  0  0  0  0
    3.0367    1.4624    0.0000 C   0  0  0  0  0  0  0  0  0  0  0  0
    3.7867    2.7614    0.0000 C   0  0  0  0  0  0  0  0  0  0  0  0
    4.5199    1.2388    0.0000 O   0  0  0  0  0  0  0  0  0  0  0  0
  1  2  1  0
  3  2  1  1
  3  4  1  0
  4  5  1  0
  5  6  2  0
  5  7  1  0
  7  8  1  6
  7  9  1  0
  9 10  1  1
 11 10  1  6
 11 12  1  0
 12 13  1  0
 13 14  1  1
 13 15  1  0
 15 16  1  0
 13 17  1  0
 17 18  1  6
 17 19  1  0
 19 20  1  1
 19 21  1  0
  9 22  1  0
 22 23  1  6
 22 24  1  0
 24 25  1  1
 26 25  1  1
 26 27  1  0
 27 28  1  0
 28 29  1  1
 28 30  1  0
 30 31  1  0
 31 32  1  1
 32 33  1  0
 32 34  1  0
 34 35  1  0
 35 36  1  0
 35 37  1  0
 35 38  1  0
 31 39  1  0
 39 40  1  6
 24 41  1  0
 41 42  1  1
 41 43  1  0
 41 44  1  0
 44 45  1  0
 45 46  1  1
 45 47  1  0
 47 48  1  6
 47 49  1  0
 49 50  1  6
 49 51  1  0
 51 52  1  1
 51 53  1  0
 53 54  1  1
 53 55  1  0
 53  3  1  0
 21 11  1  0
 39 26  1  0
M  END
>  <ChEMBL_IDs>  (146) 
CHEMBL1778155

>  <target_organism>  (146) 
Homo sapiens,None,Escherichia coli K-12

>  <target_molecule_pref_name>  (146) 
None

>  <# Known Targets>  (146) 
1.0

>  <Known Targets>  (146) 
CHEMBL5306

>  <smiles>  (146) 
CC[C@H]1OC(=O)[C@H](C)[C@@H](O[C@H]2C[C@@](C)(OC)[C@@H](O)[C@H](C)O2)[C@H](C)[C@@H](O[C@@H]2O[C@H](C)C[C@H](N(C)CC(C)(C)O)[C@H]2O)[C@](C)(O)C[C@@H](C)[C@H](O)[C@H](C)[C@@H](O)[C@]1(C)O

$$$$

     RDKit          2D

 54 56  0  0  0  0  0  0  0  0999 V2000
    5.6205   -1.2990    0.0000 C   0  0  0  0  0  0  0  0  0  0  0  0
    4.8705    0.0000    0.0000 C   0  0  0  0  0  0  0  0  0  0  0  0
    3.3705    0.0000    0.0000 C   0  0  0  0  0  0  0  0  0  0  0  0
    3.0367   -1.4624    0.0000 O   0  0  0  0  0  0  0  0  0  0  0  0
    2.1015   -2.6351    0.0000 C   0  0  0  0  0  0  0  0  0  0  0  0
    3.0367   -3.8079    0.0000 O   0  0  0  0  0  0  0  0  0  0  0  0
    0.7500   -3.2860    0.0000 C   0  0  0  0  0  0  0  0  0  0  0  0
    1.3600   -4.4903    0.0000 C   0  0  0  0  0  0  0  0  0  0  0  0
   -0.7500   -3.2860    0.0000 C   0  0  0  0  0  0  0  0  0  0  0  0
   -1.0838   -4.7484    0.0000 O   0  0  0  0  0  0  0  0  0  0  0  0
    0.0158   -5.7686    0.0000 C   0  0  0  0  0  0  0  0  0  0  0  0
   -0.3180   -7.2310    0.0000 C   0  0  0  0  0  0  0  0  0  0  0  0
    0.7816   -8.2513    0.0000 C   0  0  0  0  0  0  0  0  0  0  0  0
    1.4659   -9.5861    0.0000 C   0  0  0  0  0  0  0  0  0  0  0  0
   -0.4141   -9.1570    0.0000 O   0  0  0  0  0  0  0  0  0  0  0  0
   -0.2276  -10.6453    0.0000 C   0  0  0  0  0  0  0  0  0  0  0  0
    2.2150   -7.8091    0.0000 C   0  0  0  0  0  0  0  0  0  0  0  0
    2.5487   -6.3467    0.0000 C   0  0  0  0  0  0  0  0  0  0  0  0
    3.9821   -5.9046    0.0000 C   0  0  0  0  0  0  0  0  0  0  0  0
    1.4492   -5.3265    0.0000 O   0  0  0  0  0  0  0  0  0  0  0  0
   -2.1015   -2.6351    0.0000 C   0  0  0  0  0  0  0  0  0  0  0  0
   -3.0367   -3.8079    0.0000 C   0  0  0  0  0  0  0  0  0  0  0  0
   -3.0367   -1.4624    0.0000 C   0  0  0  0  0  0  0  0  0  0  0  0
   -4.3881   -2.1132    0.0000 O   0  0  0  0  0  0  0  0  0  0  0  0
   -5.6275   -1.2682    0.0000 C   0  0  0  0  0  0  0  0  0  0  0  0
   -5.5154    0.2276    0.0000 O   0  0  0  0  0  0  0  0  0  0  0  0
   -6.7548    1.0725    0.0000 C   0  0  0  0  0  0  0  0  0  0  0  0
   -6.6427    2.5684    0.0000 C   0  0  0  0  0  0  0  0  0  0  0  0
   -8.1062    0.4217    0.0000 C   0  0  0  0  0  0  0  0  0  0  0  0
   -8.2183   -1.0741    0.0000 C   0  0  0  0  0  0  0  0  0  0  0  0
   -9.5698   -1.7249    0.0000 N   0  0  0  0  0  0  0  0  0  0  0  0
  -10.8091   -0.8799    0.0000 C   0  0  0  0  0  0  0  0  0  0  0  0
   -9.6819   -3.2207    0.0000 C   0  0  0  0  0  0  0  0  0  0  0  0
  -11.0333   -3.8715    0.0000 C   0  0  0  0  0  0  0  0  0  0  0  0
  -11.6841   -2.5201    0.0000 C   0  0  0  0  0  0  0  0  0  0  0  0
  -10.3825   -5.2230    0.0000 C   0  0  0  0  0  0  0  0  0  0  0  0
  -12.3848   -4.5224    0.0000 O   0  0  0  0  0  0  0  0  0  0  0  0
   -6.9790   -1.9191    0.0000 C   0  0  0  0  0  0  0  0  0  0  0  0
   -7.0910   -3.4149    0.0000 O   0  0  0  0  0  0  0  0  0  0  0  0
   -3.3705    0.0000    0.0000 C   0  0  0  0  0  0  0  0  0  0  0  0
   -4.6098   -0.8450    0.0000 C   0  0  0  0  0  0  0  0  0  0  0  0
   -4.6098    0.8450    0.0000 O   0  0  0  0  0  0  0  0  0  0  0  0
   -3.0367    1.4624    0.0000 C   0  0  0  0  0  0  0  0  0  0  0  0
   -2.1015    2.6351    0.0000 C   0  0  0  0  0  0  0  0  0  0  0  0
   -3.0367    3.8079    0.0000 C   0  0  0  0  0  0  0  0  0  0  0  0
   -0.7500    3.2860    0.0000 C   0  0  0  0  0  0  0  0  0  0  0  0
   -1.0838    4.7484    0.0000 O   0  0  0  0  0  0  0  0  0  0  0  0
    0.7500    3.2860    0.0000 C   0  0  0  0  0  0  0  0  0  0  0  0
    1.0838    4.7484    0.0000 C   0  0  0  0  0  0  0  0  0  0  0  0
    2.1015    2.6351    0.0000 C   0  0  0  0  0  0  0  0  0  0  0  0
    3.0367    3.8079    0.0000 O   0  0  0  0  0  0  0  0  0  0  0  0
    3.0367    1.4624    0.0000 C   0  0  0  0  0  0  0  0  0  0  0  0
    3.7867    2.7614    0.0000 C   0  0  0  0  0  0  0  0  0  0  0  0
    4.5199    1.2388    0.0000 O   0  0  0  0  0  0  0  0  0  0  0  0
  1  2  1  0
  3  2  1  1
  3  4  1  0
  4  5  1  0
  5  6  2  0
  5  7  1  0
  7  8  1  6
  7  9  1  0
  9 10  1  1
 11 10  1  6
 11 12  1  0
 12 13  1  0
 13 14  1  1
 13 15  1  0
 15 16  1  0
 13 17  1  0
 17 18  1  0
 18 19  1  1
 18 20  1  0
  9 21  1  0
 21 22  1  6
 21 23  1  0
 23 24  1  1
 25 24  1  1
 25 26  1  0
 26 27  1  0
 27 28  1  1
 27 29  1  0
 29 30  1  0
 30 31  1  1
 31 32  1  0
 31 33  1  0
 33 34  1  0
 34 35  1  0
 34 36  1  0
 34 37  1  0
 30 38  1  0
 38 39  1  6
 23 40  1  0
 40 41  1  1
 40 42  1  0
 40 43  1  0
 43 44  1  0
 44 45  1  1
 44 46  1  0
 46 47  1  6
 46 48  1  0
 48 49  1  6
 48 50  1  0
 50 51  1  1
 50 52  1  0
 52 53  1  1
 52 54  1  0
 52  3  1  0
 20 11  1  0
 38 25  1  0
M  END
>  <ChEMBL_IDs>  (147) 
CHEMBL1778050

>  <target_organism>  (147) 
Homo sapiens,None,Escherichia coli K-12

>  <target_molecule_pref_name>  (147) 
None

>  <# Known Targets>  (147) 
1.0

>  <Known Targets>  (147) 
CHEMBL5306

>  <smiles>  (147) 
CC[C@H]1OC(=O)[C@H](C)[C@@H](O[C@H]2C[C@@](C)(OC)C[C@H](C)O2)[C@H](C)[C@@H](O[C@@H]2O[C@H](C)C[C@H](N(C)CC(C)(C)O)[C@H]2O)[C@](C)(O)C[C@@H](C)[C@H](O)[C@H](C)[C@@H](O)[C@]1(C)O

$$$$

     RDKit          2D

 54 56  0  0  0  0  0  0  0  0999 V2000
    5.6205   -1.2990    0.0000 C   0  0  0  0  0  0  0  0  0  0  0  0
    4.8705    0.0000    0.0000 C   0  0  0  0  0  0  0  0  0  0  0  0
    3.3705    0.0000    0.0000 C   0  0  0  0  0  0  0  0  0  0  0  0
    3.0367   -1.4624    0.0000 O   0  0  0  0  0  0  0  0  0  0  0  0
    2.1015   -2.6351    0.0000 C   0  0  0  0  0  0  0  0  0  0  0  0
    3.0367   -3.8079    0.0000 O   0  0  0  0  0  0  0  0  0  0  0  0
    0.7500   -3.2860    0.0000 C   0  0  0  0  0  0  0  0  0  0  0  0
    1.3600   -4.4903    0.0000 C   0  0  0  0  0  0  0  0  0  0  0  0
   -0.7500   -3.2860    0.0000 C   0  0  0  0  0  0  0  0  0  0  0  0
   -1.0838   -4.7484    0.0000 O   0  0  0  0  0  0  0  0  0  0  0  0
    0.0158   -5.7686    0.0000 C   0  0  0  0  0  0  0  0  0  0  0  0
   -0.3180   -7.2310    0.0000 C   0  0  0  0  0  0  0  0  0  0  0  0
    0.7816   -8.2513    0.0000 C   0  0  0  0  0  0  0  0  0  0  0  0
    1.4659   -9.5861    0.0000 C   0  0  0  0  0  0  0  0  0  0  0  0
   -0.4141   -9.1570    0.0000 O   0  0  0  0  0  0  0  0  0  0  0  0
   -0.2276  -10.6453    0.0000 C   0  0  0  0  0  0  0  0  0  0  0  0
    2.2150   -7.8091    0.0000 C   0  0  0  0  0  0  0  0  0  0  0  0
    3.3145   -8.8294    0.0000 O   0  0  0  0  0  0  0  0  0  0  0  0
    2.5487   -6.3467    0.0000 C   0  0  0  0  0  0  0  0  0  0  0  0
    3.9821   -5.9046    0.0000 C   0  0  0  0  0  0  0  0  0  0  0  0
    1.4492   -5.3265    0.0000 O   0  0  0  0  0  0  0  0  0  0  0  0
   -2.1015   -2.6351    0.0000 C   0  0  0  0  0  0  0  0  0  0  0  0
   -3.0367   -3.8079    0.0000 C   0  0  0  0  0  0  0  0  0  0  0  0
   -3.0367   -1.4624    0.0000 C   0  0  0  0  0  0  0  0  0  0  0  0
   -4.3881   -2.1132    0.0000 O   0  0  0  0  0  0  0  0  0  0  0  0
   -5.6275   -1.2682    0.0000 C   0  0  0  0  0  0  0  0  0  0  0  0
   -5.5154    0.2276    0.0000 O   0  0  0  0  0  0  0  0  0  0  0  0
   -6.7548    1.0725    0.0000 C   0  0  0  0  0  0  0  0  0  0  0  0
   -6.6427    2.5684    0.0000 C   0  0  0  0  0  0  0  0  0  0  0  0
   -8.1062    0.4217    0.0000 C   0  0  0  0  0  0  0  0  0  0  0  0
   -8.2183   -1.0741    0.0000 C   0  0  0  0  0  0  0  0  0  0  0  0
   -9.5698   -1.7249    0.0000 N   0  0  0  0  0  0  0  0  0  0  0  0
  -10.8091   -0.8799    0.0000 C   0  0  0  0  0  0  0  0  0  0  0  0
   -9.6819   -3.2207    0.0000 C   0  0  0  0  0  0  0  0  0  0  0  0
  -11.0333   -3.8715    0.0000 C   0  0  0  0  0  0  0  0  0  0  0  0
  -11.1454   -5.3673    0.0000 C   0  0  0  0  0  0  0  0  0  0  0  0
  -12.2727   -3.0266    0.0000 C   0  0  0  0  0  0  0  0  0  0  0  0
   -6.9790   -1.9191    0.0000 C   0  0  0  0  0  0  0  0  0  0  0  0
   -7.0910   -3.4149    0.0000 O   0  0  0  0  0  0  0  0  0  0  0  0
   -3.3705    0.0000    0.0000 C   0  0  0  0  0  0  0  0  0  0  0  0
   -4.6098   -0.8450    0.0000 C   0  0  0  0  0  0  0  0  0  0  0  0
   -4.6098    0.8450    0.0000 O   0  0  0  0  0  0  0  0  0  0  0  0
   -3.0367    1.4624    0.0000 C   0  0  0  0  0  0  0  0  0  0  0  0
   -2.1015    2.6351    0.0000 C   0  0  0  0  0  0  0  0  0  0  0  0
   -3.0367    3.8079    0.0000 C   0  0  0  0  0  0  0  0  0  0  0  0
   -0.7500    3.2860    0.0000 C   0  0  0  0  0  0  0  0  0  0  0  0
   -1.0838    4.7484    0.0000 O   0  0  0  0  0  0  0  0  0  0  0  0
    0.7500    3.2860    0.0000 C   0  0  0  0  0  0  0  0  0  0  0  0
    1.0838    4.7484    0.0000 C   0  0  0  0  0  0  0  0  0  0  0  0
    2.1015    2.6351    0.0000 C   0  0  0  0  0  0  0  0  0  0  0  0
    3.0367    3.8079    0.0000 O   0  0  0  0  0  0  0  0  0  0  0  0
    3.0367    1.4624    0.0000 C   0  0  0  0  0  0  0  0  0  0  0  0
    3.7867    2.7614    0.0000 C   0  0  0  0  0  0  0  0  0  0  0  0
    4.5199    1.2388    0.0000 O   0  0  0  0  0  0  0  0  0  0  0  0
  1  2  1  0
  3  2  1  1
  3  4  1  0
  4  5  1  0
  5  6  2  0
  5  7  1  0
  7  8  1  6
  7  9  1  0
  9 10  1  1
 11 10  1  1
 11 12  1  0
 12 13  1  0
 13 14  1  1
 13 15  1  0
 15 16  1  0
 13 17  1  0
 17 18  1  6
 17 19  1  0
 19 20  1  1
 19 21  1  0
  9 22  1  0
 22 23  1  6
 22 24  1  0
 24 25  1  1
 26 25  1  1
 26 27  1  0
 27 28  1  0
 28 29  1  1
 28 30  1  0
 30 31  1  0
 31 32  1  1
 32 33  1  0
 32 34  1  0
 34 35  1  0
 35 36  1  0
 35 37  1  0
 31 38  1  0
 38 39  1  6
 24 40  1  0
 40 41  1  1
 40 42  1  0
 40 43  1  0
 43 44  1  0
 44 45  1  1
 44 46  1  0
 46 47  1  6
 46 48  1  0
 48 49  1  6
 48 50  1  0
 50 51  1  1
 50 52  1  0
 52 53  1  1
 52 54  1  0
 52  3  1  0
 21 11  1  0
 38 26  1  0
M  END
>  <ChEMBL_IDs>  (148) 
CHEMBL1256535

>  <target_organism>  (148) 
nan

>  <target_molecule_pref_name>  (148) 
None

>  <# Known Targets>  (148) 
1.0

>  <Known Targets>  (148) 
CHEMBL5306

>  <smiles>  (148) 
CC[C@H]1OC(=O)[C@H](C)[C@@H](O[C@@H]2C[C@@](C)(OC)[C@@H](O)[C@H](C)O2)[C@H](C)[C@@H](O[C@@H]2O[C@H](C)C[C@H](N(C)CC(C)C)[C@H]2O)[C@](C)(O)C[C@@H](C)[C@H](O)[C@H](C)[C@@H](O)[C@]1(C)O

$$$$

     RDKit          2D

 54 56  0  0  0  0  0  0  0  0999 V2000
    5.6205   -1.2990    0.0000 C   0  0  0  0  0  0  0  0  0  0  0  0
    4.8705    0.0000    0.0000 C   0  0  0  0  0  0  0  0  0  0  0  0
    3.3705    0.0000    0.0000 C   0  0  0  0  0  0  0  0  0  0  0  0
    3.0367   -1.4624    0.0000 O   0  0  0  0  0  0  0  0  0  0  0  0
    2.1015   -2.6351    0.0000 C   0  0  0  0  0  0  0  0  0  0  0  0
    3.0367   -3.8079    0.0000 O   0  0  0  0  0  0  0  0  0  0  0  0
    0.7500   -3.2860    0.0000 C   0  0  0  0  0  0  0  0  0  0  0  0
    1.3600   -4.4903    0.0000 C   0  0  0  0  0  0  0  0  0  0  0  0
   -0.7500   -3.2860    0.0000 C   0  0  0  0  0  0  0  0  0  0  0  0
   -1.0838   -4.7484    0.0000 O   0  0  0  0  0  0  0  0  0  0  0  0
    0.0158   -5.7686    0.0000 C   0  0  0  0  0  0  0  0  0  0  0  0
   -0.3180   -7.2310    0.0000 C   0  0  0  0  0  0  0  0  0  0  0  0
    0.7816   -8.2513    0.0000 C   0  0  0  0  0  0  0  0  0  0  0  0
    1.4659   -9.5861    0.0000 C   0  0  0  0  0  0  0  0  0  0  0  0
   -0.4141   -9.1570    0.0000 O   0  0  0  0  0  0  0  0  0  0  0  0
   -0.2276  -10.6453    0.0000 C   0  0  0  0  0  0  0  0  0  0  0  0
    2.2150   -7.8091    0.0000 C   0  0  0  0  0  0  0  0  0  0  0  0
    3.3145   -8.8294    0.0000 O   0  0  0  0  0  0  0  0  0  0  0  0
    2.5487   -6.3467    0.0000 C   0  0  0  0  0  0  0  0  0  0  0  0
    3.9821   -5.9046    0.0000 C   0  0  0  0  0  0  0  0  0  0  0  0
    1.4492   -5.3265    0.0000 O   0  0  0  0  0  0  0  0  0  0  0  0
   -2.1015   -2.6351    0.0000 C   0  0  0  0  0  0  0  0  0  0  0  0
   -3.0367   -3.8079    0.0000 C   0  0  0  0  0  0  0  0  0  0  0  0
   -3.0367   -1.4624    0.0000 C   0  0  0  0  0  0  0  0  0  0  0  0
   -4.3881   -2.1132    0.0000 O   0  0  0  0  0  0  0  0  0  0  0  0
   -5.6275   -1.2682    0.0000 C   0  0  0  0  0  0  0  0  0  0  0  0
   -5.5154    0.2276    0.0000 O   0  0  0  0  0  0  0  0  0  0  0  0
   -6.7548    1.0725    0.0000 C   0  0  0  0  0  0  0  0  0  0  0  0
   -6.6427    2.5684    0.0000 C   0  0  0  0  0  0  0  0  0  0  0  0
   -8.1062    0.4217    0.0000 C   0  0  0  0  0  0  0  0  0  0  0  0
   -8.2183   -1.0741    0.0000 C   0  0  0  0  0  0  0  0  0  0  0  0
   -9.5698   -1.7249    0.0000 N   0  0  0  0  0  0  0  0  0  0  0  0
  -10.8091   -0.8799    0.0000 C   0  0  0  0  0  0  0  0  0  0  0  0
   -9.6819   -3.2207    0.0000 C   0  0  0  0  0  0  0  0  0  0  0  0
  -11.0333   -3.8715    0.0000 C   0  0  0  0  0  0  0  0  0  0  0  0
  -11.6841   -2.5201    0.0000 C   0  0  0  0  0  0  0  0  0  0  0  0
  -10.3825   -5.2230    0.0000 C   0  0  0  0  0  0  0  0  0  0  0  0
  -12.3848   -4.5224    0.0000 O   0  0  0  0  0  0  0  0  0  0  0  0
   -6.9790   -1.9191    0.0000 C   0  0  0  0  0  0  0  0  0  0  0  0
   -7.0910   -3.4149    0.0000 O   0  0  0  0  0  0  0  0  0  0  0  0
   -3.3705    0.0000    0.0000 C   0  0  0  0  0  0  0  0  0  0  0  0
   -4.6098   -0.8450    0.0000 C   0  0  0  0  0  0  0  0  0  0  0  0
   -4.6098    0.8450    0.0000 O   0  0  0  0  0  0  0  0  0  0  0  0
   -3.0367    1.4624    0.0000 C   0  0  0  0  0  0  0  0  0  0  0  0
   -2.1015    2.6351    0.0000 C   0  0  0  0  0  0  0  0  0  0  0  0
   -3.0367    3.8079    0.0000 C   0  0  0  0  0  0  0  0  0  0  0  0
   -0.7500    3.2860    0.0000 C   0  0  0  0  0  0  0  0  0  0  0  0
   -1.0838    4.7484    0.0000 O   0  0  0  0  0  0  0  0  0  0  0  0
    0.7500    3.2860    0.0000 C   0  0  0  0  0  0  0  0  0  0  0  0
    1.0838    4.7484    0.0000 C   0  0  0  0  0  0  0  0  0  0  0  0
    2.1015    2.6351    0.0000 C   0  0  0  0  0  0  0  0  0  0  0  0
    3.0367    3.8079    0.0000 O   0  0  0  0  0  0  0  0  0  0  0  0
    3.0367    1.4624    0.0000 C   0  0  0  0  0  0  0  0  0  0  0  0
    4.3881    2.1132    0.0000 C   0  0  0  0  0  0  0  0  0  0  0  0
  1  2  1  0
  3  2  1  1
  3  4  1  0
  4  5  1  0
  5  6  2  0
  5  7  1  0
  7  8  1  6
  7  9  1  0
  9 10  1  1
 11 10  1  1
 11 12  1  0
 12 13  1  0
 13 14  1  1
 13 15  1  0
 15 16  1  0
 13 17  1  0
 17 18  1  6
 17 19  1  0
 19 20  1  1
 19 21  1  0
  9 22  1  0
 22 23  1  6
 22 24  1  0
 24 25  1  1
 26 25  1  1
 26 27  1  0
 27 28  1  0
 28 29  1  1
 28 30  1  0
 30 31  1  0
 31 32  1  1
 32 33  1  0
 32 34  1  0
 34 35  1  0
 35 36  1  0
 35 37  1  0
 35 38  1  0
 31 39  1  0
 39 40  1  6
 24 41  1  0
 41 42  1  1
 41 43  1  0
 41 44  1  0
 44 45  1  0
 45 46  1  1
 45 47  1  0
 47 48  1  6
 47 49  1  0
 49 50  1  6
 49 51  1  0
 51 52  1  1
 51 53  1  0
 53 54  1  1
 53  3  1  0
 21 11  1  0
 39 26  1  0
M  END
>  <ChEMBL_IDs>  (149) 
CHEMBL1256558

>  <target_organism>  (149) 
nan

>  <target_molecule_pref_name>  (149) 
None

>  <# Known Targets>  (149) 
1.0

>  <Known Targets>  (149) 
CHEMBL5306

>  <smiles>  (149) 
CC[C@H]1OC(=O)[C@H](C)[C@@H](O[C@@H]2C[C@@](C)(OC)[C@@H](O)[C@H](C)O2)[C@H](C)[C@@H](O[C@@H]2O[C@H](C)C[C@H](N(C)CC(C)(C)O)[C@H]2O)[C@](C)(O)C[C@@H](C)[C@H](O)[C@H](C)[C@@H](O)[C@H]1C

$$$$

     RDKit          2D

 56 58  0  0  0  0  0  0  0  0999 V2000
    8.1073    2.5981    0.0000 C   0  0  0  0  0  0  0  0  0  0  0  0
    7.3573    1.2990    0.0000 C   0  0  0  0  0  0  0  0  0  0  0  0
    5.8573    1.2990    0.0000 N   0  0  0  0  0  0  0  0  0  0  0  0
    5.1073    0.0000    0.0000 C   0  0  0  0  0  0  0  0  0  0  0  0
    5.8573   -1.2990    0.0000 O   0  0  0  0  0  0  0  0  0  0  0  0
    3.6073    0.0000    0.0000 N   0  0  0  0  0  0  0  0  0  0  0  0
    3.2954    1.4672    0.0000 C   0  0  0  0  0  0  0  0  0  0  0  0
    2.4138    2.6807    0.0000 C   0  0  0  0  0  0  0  0  0  0  0  0
    3.4175    3.7955    0.0000 C   0  0  0  0  0  0  0  0  0  0  0  0
    1.1147    3.4307    0.0000 C   0  0  0  0  0  0  0  0  0  0  0  0
   -0.3771    3.5875    0.0000 C   0  0  0  0  0  0  0  0  0  0  0  0
   -1.3412    4.7366    0.0000 C   0  0  0  0  0  0  0  0  0  0  0  0
    0.3271    4.9120    0.0000 O   0  0  0  0  0  0  0  0  0  0  0  0
   -1.8037    3.1240    0.0000 C   0  0  0  0  0  0  0  0  0  0  0  0
   -2.5537    4.4231    0.0000 O   0  0  0  0  0  0  0  0  0  0  0  0
   -1.8037    5.7221    0.0000 C   0  0  0  0  0  0  0  0  0  0  0  0
   -0.3037    5.7221    0.0000 O   0  0  0  0  0  0  0  0  0  0  0  0
    0.4463    7.0211    0.0000 C   0  0  0  0  0  0  0  0  0  0  0  0
    1.9463    7.0211    0.0000 C   0  0  0  0  0  0  0  0  0  0  0  0
   -0.3037    8.3202    0.0000 C   0  0  0  0  0  0  0  0  0  0  0  0
   -1.8037    8.3202    0.0000 C   0  0  0  0  0  0  0  0  0  0  0  0
   -2.5537    9.6192    0.0000 N   0  0  0  0  0  0  0  0  0  0  0  0
   -1.8037   10.9182    0.0000 C   0  0  0  0  0  0  0  0  0  0  0  0
   -4.0537    9.6192    0.0000 C   0  0  0  0  0  0  0  0  0  0  0  0
   -2.5537    7.0211    0.0000 C   0  0  0  0  0  0  0  0  0  0  0  0
   -4.0537    7.0211    0.0000 O   0  0  0  0  0  0  0  0  0  0  0  0
   -2.9184    2.1203    0.0000 C   0  0  0  0  0  0  0  0  0  0  0  0
   -4.1319    3.0020    0.0000 C   0  0  0  0  0  0  0  0  0  0  0  0
   -3.5285    0.7500    0.0000 C   0  0  0  0  0  0  0  0  0  0  0  0
   -4.9957    1.0619    0.0000 O   0  0  0  0  0  0  0  0  0  0  0  0
   -5.9994   -0.0528    0.0000 C   0  0  0  0  0  0  0  0  0  0  0  0
   -7.4666    0.2590    0.0000 C   0  0  0  0  0  0  0  0  0  0  0  0
   -8.4703   -0.8557    0.0000 C   0  0  0  0  0  0  0  0  0  0  0  0
   -9.7947   -1.5599    0.0000 C   0  0  0  0  0  0  0  0  0  0  0  0
   -9.3938    0.3263    0.0000 O   0  0  0  0  0  0  0  0  0  0  0  0
  -10.8792    0.1176    0.0000 C   0  0  0  0  0  0  0  0  0  0  0  0
   -8.0068   -2.2823    0.0000 C   0  0  0  0  0  0  0  0  0  0  0  0
   -9.0105   -3.3970    0.0000 O   0  0  0  0  0  0  0  0  0  0  0  0
   -6.5396   -2.5942    0.0000 C   0  0  0  0  0  0  0  0  0  0  0  0
   -6.0760   -4.0207    0.0000 C   0  0  0  0  0  0  0  0  0  0  0  0
   -5.5359   -1.4794    0.0000 O   0  0  0  0  0  0  0  0  0  0  0  0
   -3.5285   -0.7500    0.0000 C   0  0  0  0  0  0  0  0  0  0  0  0
   -4.7418   -1.3419    0.0000 C   0  0  0  0  0  0  0  0  0  0  0  0
   -2.9184   -2.1203    0.0000 C   0  0  0  0  0  0  0  0  0  0  0  0
   -4.1319   -3.0020    0.0000 O   0  0  0  0  0  0  0  0  0  0  0  0
   -1.8037   -3.1240    0.0000 O   0  0  0  0  0  0  0  0  0  0  0  0
   -0.3771   -3.5875    0.0000 C   0  0  0  0  0  0  0  0  0  0  0  0
   -0.5339   -5.0793    0.0000 C   0  0  0  0  0  0  0  0  0  0  0  0
   -1.9042   -5.6894    0.0000 C   0  0  0  0  0  0  0  0  0  0  0  0
    1.1147   -3.4307    0.0000 C   0  0  0  0  0  0  0  0  0  0  0  0
    2.2967   -4.3542    0.0000 C   0  0  0  0  0  0  0  0  0  0  0  0
    0.7013   -4.8726    0.0000 O   0  0  0  0  0  0  0  0  0  0  0  0
    2.4138   -2.6807    0.0000 C   0  0  0  0  0  0  0  0  0  0  0  0
    3.4175   -3.7955    0.0000 O   0  0  0  0  0  0  0  0  0  0  0  0
    3.2954   -1.4672    0.0000 C   0  0  0  0  0  0  0  0  0  0  0  0
    4.6658   -2.0773    0.0000 C   0  0  0  0  0  0  0  0  0  0  0  0
  1  2  1  0
  2  3  1  0
  3  4  1  0
  4  5  2  0
  4  6  1  0
  6  7  1  0
  7  8  1  0
  8  9  1  1
  8 10  1  0
 10 11  1  0
 11 12  1  1
 11 13  1  0
 11 14  1  0
 14 15  1  1
 16 15  1  1
 16 17  1  0
 17 18  1  0
 18 19  1  1
 18 20  1  0
 20 21  1  0
 21 22  1  1
 22 23  1  0
 22 24  1  0
 21 25  1  0
 25 26  1  6
 14 27  1  0
 27 28  1  6
 27 29  1  0
 29 30  1  1
 31 30  1  6
 31 32  1  0
 32 33  1  0
 33 34  1  1
 33 35  1  0
 35 36  1  0
 33 37  1  0
 37 38  1  6
 37 39  1  0
 39 40  1  1
 39 41  1  0
 29 42  1  0
 42 43  1  6
 42 44  1  0
 44 45  2  0
 44 46  1  0
 46 47  1  0
 47 48  1  1
 48 49  1  0
 47 50  1  0
 50 51  1  1
 50 52  1  0
 50 53  1  0
 53 54  1  1
 53 55  1  0
 55 56  1  6
 55  6  1  0
 25 16  1  0
 41 31  1  0
M  END
>  <ChEMBL_IDs>  (150) 
CHEMBL1774293

>  <target_organism>  (150) 
Homo sapiens,None,Escherichia coli K-12

>  <target_molecule_pref_name>  (150) 
None

>  <# Known Targets>  (150) 
1.0

>  <Known Targets>  (150) 
CHEMBL612888

>  <smiles>  (150) 
CCNC(=O)N1C[C@H](C)C[C@@](C)(O)[C@H](O[C@@H]2O[C@H](C)C[C@H](N(C)C)[C@H]2O)[C@@H](C)[C@H](O[C@H]2C[C@@](C)(OC)[C@@H](O)[C@H](C)O2)[C@@H](C)C(=O)O[C@H](CC)[C@@](C)(O)[C@H](O)[C@H]1C

$$$$

     RDKit          2D

 55 57  0  0  0  0  0  0  0  0999 V2000
    9.3705    2.5981    0.0000 C   0  0  0  0  0  0  0  0  0  0  0  0
    7.8705    2.5981    0.0000 C   0  0  0  0  0  0  0  0  0  0  0  0
    7.1205    1.2990    0.0000 C   0  0  0  0  0  0  0  0  0  0  0  0
    5.6205    1.2990    0.0000 O   0  0  0  0  0  0  0  0  0  0  0  0
    4.8705    0.0000    0.0000 N   0  0  0  0  0  0  0  0  0  0  0  0
    3.3705    0.0000    0.0000 C   0  0  0  0  0  0  0  0  0  0  0  0
    3.0367   -1.4624    0.0000 C   0  0  0  0  0  0  0  0  0  0  0  0
    4.3881   -2.1132    0.0000 C   0  0  0  0  0  0  0  0  0  0  0  0
    2.1015   -2.6351    0.0000 C   0  0  0  0  0  0  0  0  0  0  0  0
    3.0367   -3.8079    0.0000 O   0  0  0  0  0  0  0  0  0  0  0  0
    0.7500   -3.2860    0.0000 C   0  0  0  0  0  0  0  0  0  0  0  0
    1.8496   -4.3062    0.0000 C   0  0  0  0  0  0  0  0  0  0  0  0
    0.2020   -4.6823    0.0000 O   0  0  0  0  0  0  0  0  0  0  0  0
   -0.7500   -3.2860    0.0000 C   0  0  0  0  0  0  0  0  0  0  0  0
   -1.0838   -4.7484    0.0000 C   0  0  0  0  0  0  0  0  0  0  0  0
   -2.5171   -5.1905    0.0000 C   0  0  0  0  0  0  0  0  0  0  0  0
   -2.1015   -2.6351    0.0000 O   0  0  0  0  0  0  0  0  0  0  0  0
   -3.0367   -1.4624    0.0000 C   0  0  0  0  0  0  0  0  0  0  0  0
   -4.3881   -2.1132    0.0000 O   0  0  0  0  0  0  0  0  0  0  0  0
   -3.3705    0.0000    0.0000 C   0  0  0  0  0  0  0  0  0  0  0  0
   -4.6804   -0.3267    0.0000 C   0  0  0  0  0  0  0  0  0  0  0  0
   -3.0367    1.4624    0.0000 C   0  0  0  0  0  0  0  0  0  0  0  0
   -4.3881    2.1132    0.0000 O   0  0  0  0  0  0  0  0  0  0  0  0
   -5.6275    1.2682    0.0000 C   0  0  0  0  0  0  0  0  0  0  0  0
   -6.9790    1.9191    0.0000 C   0  0  0  0  0  0  0  0  0  0  0  0
   -8.2183    1.0741    0.0000 C   0  0  0  0  0  0  0  0  0  0  0  0
   -9.6719    0.7039    0.0000 C   0  0  0  0  0  0  0  0  0  0  0  0
   -8.8352    2.4413    0.0000 O   0  0  0  0  0  0  0  0  0  0  0  0
  -10.3278    2.5907    0.0000 C   0  0  0  0  0  0  0  0  0  0  0  0
   -8.1062   -0.4217    0.0000 C   0  0  0  0  0  0  0  0  0  0  0  0
   -9.3456   -1.2667    0.0000 O   0  0  0  0  0  0  0  0  0  0  0  0
   -6.7548   -1.0725    0.0000 C   0  0  0  0  0  0  0  0  0  0  0  0
   -6.6427   -2.5684    0.0000 C   0  0  0  0  0  0  0  0  0  0  0  0
   -5.5154   -0.2276    0.0000 O   0  0  0  0  0  0  0  0  0  0  0  0
   -2.1015    2.6351    0.0000 C   0  0  0  0  0  0  0  0  0  0  0  0
   -3.0367    3.8079    0.0000 C   0  0  0  0  0  0  0  0  0  0  0  0
   -0.7500    3.2860    0.0000 C   0  0  0  0  0  0  0  0  0  0  0  0
   -1.0838    4.7484    0.0000 O   0  0  0  0  0  0  0  0  0  0  0  0
    0.0158    5.7686    0.0000 C   0  0  0  0  0  0  0  0  0  0  0  0
    1.4492    5.3265    0.0000 O   0  0  0  0  0  0  0  0  0  0  0  0
    2.5487    6.3467    0.0000 C   0  0  0  0  0  0  0  0  0  0  0  0
    3.9821    5.9046    0.0000 C   0  0  0  0  0  0  0  0  0  0  0  0
    2.2150    7.8091    0.0000 C   0  0  0  0  0  0  0  0  0  0  0  0
    0.7816    8.2513    0.0000 C   0  0  0  0  0  0  0  0  0  0  0  0
    0.4478    9.7137    0.0000 N   0  0  0  0  0  0  0  0  0  0  0  0
    1.5474   10.7339    0.0000 C   0  0  0  0  0  0  0  0  0  0  0  0
   -0.9855   10.1558    0.0000 C   0  0  0  0  0  0  0  0  0  0  0  0
   -0.3180    7.2310    0.0000 C   0  0  0  0  0  0  0  0  0  0  0  0
   -1.7513    7.6731    0.0000 O   0  0  0  0  0  0  0  0  0  0  0  0
    0.7500    3.2860    0.0000 C   0  0  0  0  0  0  0  0  0  0  0  0
    0.2020    4.6823    0.0000 C   0  0  0  0  0  0  0  0  0  0  0  0
    1.8496    4.3062    0.0000 O   0  0  0  0  0  0  0  0  0  0  0  0
    2.1015    2.6351    0.0000 C   0  0  0  0  0  0  0  0  0  0  0  0
    3.0367    1.4624    0.0000 C   0  0  0  0  0  0  0  0  0  0  0  0
    4.3881    2.1132    0.0000 C   0  0  0  0  0  0  0  0  0  0  0  0
  1  2  1  0
  2  3  1  0
  3  4  1  0
  4  5  1  0
  5  6  2  0
  6  7  1  0
  7  8  1  6
  7  9  1  0
  9 10  1  1
  9 11  1  0
 11 12  1  1
 11 13  1  0
 11 14  1  0
 14 15  1  1
 15 16  1  0
 14 17  1  0
 17 18  1  0
 18 19  2  0
 18 20  1  0
 20 21  1  6
 20 22  1  0
 22 23  1  1
 24 23  1  6
 24 25  1  0
 25 26  1  0
 26 27  1  1
 26 28  1  0
 28 29  1  0
 26 30  1  0
 30 31  1  6
 30 32  1  0
 32 33  1  1
 32 34  1  0
 22 35  1  0
 35 36  1  6
 35 37  1  0
 37 38  1  1
 39 38  1  1
 39 40  1  0
 40 41  1  0
 41 42  1  1
 41 43  1  0
 43 44  1  0
 44 45  1  1
 45 46  1  0
 45 47  1  0
 44 48  1  0
 48 49  1  6
 37 50  1  0
 50 51  1  1
 50 52  1  0
 50 53  1  0
 53 54  1  0
 54 55  1  1
 54  6  1  0
 34 24  1  0
 48 39  1  0
M  END
>  <ChEMBL_IDs>  (151) 
CHEMBL1774287

>  <target_organism>  (151) 
Homo sapiens,None,Escherichia coli K-12

>  <target_molecule_pref_name>  (151) 
None

>  <# Known Targets>  (151) 
1.0

>  <Known Targets>  (151) 
CHEMBL612888

>  <smiles>  (151) 
CCCO/N=C1/[C@H](C)[C@@H](O)[C@](C)(O)[C@@H](CC)OC(=O)[C@H](C)[C@@H](O[C@H]2C[C@@](C)(OC)[C@@H](O)[C@H](C)O2)[C@H](C)[C@@H](O[C@@H]2O[C@H](C)C[C@H](N(C)C)[C@H]2O)[C@](C)(O)C[C@H]1C

$$$$

     RDKit          2D

 54 56  0  0  0  0  0  0  0  0999 V2000
    7.4426   -1.0200    0.0000 C   0  0  0  0  0  0  0  0  0  0  0  0
    6.1990   -0.1812    0.0000 C   0  0  0  0  0  0  0  0  0  0  0  0
    4.8509   -0.8388    0.0000 O   0  0  0  0  0  0  0  0  0  0  0  0
    3.6073    0.0000    0.0000 C   0  0  0  0  0  0  0  0  0  0  0  0
    4.7393    0.9841    0.0000 C   0  0  0  0  0  0  0  0  0  0  0  0
    3.2954    1.4672    0.0000 C   0  0  0  0  0  0  0  0  0  0  0  0
    2.4138    2.6807    0.0000 C   0  0  0  0  0  0  0  0  0  0  0  0
    3.4175    3.7955    0.0000 C   0  0  0  0  0  0  0  0  0  0  0  0
    1.1147    3.4307    0.0000 C   0  0  0  0  0  0  0  0  0  0  0  0
   -0.3771    3.5875    0.0000 N   0  0  0  0  0  0  0  0  0  0  0  0
   -0.5339    5.0793    0.0000 C   0  0  0  0  0  0  0  0  0  0  0  0
   -1.8037    3.1240    0.0000 C   0  0  0  0  0  0  0  0  0  0  0  0
   -2.5537    4.4231    0.0000 C   0  0  0  0  0  0  0  0  0  0  0  0
   -2.9184    2.1203    0.0000 C   0  0  0  0  0  0  0  0  0  0  0  0
   -4.1319    3.0020    0.0000 O   0  0  0  0  0  0  0  0  0  0  0  0
   -3.5285    0.7500    0.0000 C   0  0  0  0  0  0  0  0  0  0  0  0
   -4.9192    0.1881    0.0000 C   0  0  0  0  0  0  0  0  0  0  0  0
   -4.5705    1.8290    0.0000 O   0  0  0  0  0  0  0  0  0  0  0  0
   -3.5285   -0.7500    0.0000 C   0  0  0  0  0  0  0  0  0  0  0  0
   -4.9957   -1.0619    0.0000 C   0  0  0  0  0  0  0  0  0  0  0  0
   -5.9994    0.0528    0.0000 C   0  0  0  0  0  0  0  0  0  0  0  0
   -2.9184   -2.1203    0.0000 O   0  0  0  0  0  0  0  0  0  0  0  0
   -1.8037   -3.1240    0.0000 C   0  0  0  0  0  0  0  0  0  0  0  0
   -2.5537   -4.4231    0.0000 O   0  0  0  0  0  0  0  0  0  0  0  0
   -0.3771   -3.5875    0.0000 C   0  0  0  0  0  0  0  0  0  0  0  0
   -0.8389   -4.8561    0.0000 C   0  0  0  0  0  0  0  0  0  0  0  0
    1.1147   -3.4307    0.0000 C   0  0  0  0  0  0  0  0  0  0  0  0
    1.5782   -4.8573    0.0000 O   0  0  0  0  0  0  0  0  0  0  0  0
    0.5745   -5.9720    0.0000 C   0  0  0  0  0  0  0  0  0  0  0  0
    1.0381   -7.3986    0.0000 C   0  0  0  0  0  0  0  0  0  0  0  0
    0.0344   -8.5134    0.0000 C   0  0  0  0  0  0  0  0  0  0  0  0
   -0.5275   -9.9041    0.0000 C   0  0  0  0  0  0  0  0  0  0  0  0
    1.3064   -9.3082    0.0000 O   0  0  0  0  0  0  0  0  0  0  0  0
    1.2541  -10.8073    0.0000 C   0  0  0  0  0  0  0  0  0  0  0  0
   -1.4328   -8.2015    0.0000 C   0  0  0  0  0  0  0  0  0  0  0  0
   -2.4365   -9.3162    0.0000 O   0  0  0  0  0  0  0  0  0  0  0  0
   -1.8964   -6.7749    0.0000 C   0  0  0  0  0  0  0  0  0  0  0  0
   -3.3636   -6.4630    0.0000 C   0  0  0  0  0  0  0  0  0  0  0  0
   -0.8927   -5.6602    0.0000 O   0  0  0  0  0  0  0  0  0  0  0  0
    2.4138   -2.6807    0.0000 C   0  0  0  0  0  0  0  0  0  0  0  0
    3.4175   -3.7955    0.0000 C   0  0  0  0  0  0  0  0  0  0  0  0
    3.2954   -1.4672    0.0000 C   0  0  0  0  0  0  0  0  0  0  0  0
    4.6658   -2.0773    0.0000 O   0  0  0  0  0  0  0  0  0  0  0  0
    5.8793   -1.1956    0.0000 C   0  0  0  0  0  0  0  0  0  0  0  0
    7.2496   -1.8058    0.0000 O   0  0  0  0  0  0  0  0  0  0  0  0
    8.4631   -0.9241    0.0000 C   0  0  0  0  0  0  0  0  0  0  0  0
    9.8334   -1.5342    0.0000 C   0  0  0  0  0  0  0  0  0  0  0  0
    8.3063    0.5677    0.0000 C   0  0  0  0  0  0  0  0  0  0  0  0
    6.9360    1.1778    0.0000 C   0  0  0  0  0  0  0  0  0  0  0  0
    6.7792    2.6696    0.0000 N   0  0  0  0  0  0  0  0  0  0  0  0
    7.9927    3.5513    0.0000 C   0  0  0  0  0  0  0  0  0  0  0  0
    5.4089    3.2797    0.0000 C   0  0  0  0  0  0  0  0  0  0  0  0
    5.7225    0.2961    0.0000 C   0  0  0  0  0  0  0  0  0  0  0  0
    4.4368    1.0687    0.0000 O   0  0  0  0  0  0  0  0  0  0  0  0
  1  2  2  0
  2  3  1  0
  3  4  1  0
  4  5  1  6
  4  6  1  0
  6  7  1  0
  7  8  1  6
  7  9  1  0
  9 10  1  0
 10 11  1  0
 10 12  1  0
 12 13  1  1
 12 14  1  0
 14 15  1  6
 14 16  1  0
 16 17  1  6
 16 18  1  0
 16 19  1  0
 19 20  1  6
 20 21  1  0
 19 22  1  0
 22 23  1  0
 23 24  2  0
 23 25  1  0
 25 26  1  1
 25 27  1  0
 27 28  1  6
 29 28  1  1
 29 30  1  0
 30 31  1  0
 31 32  1  6
 31 33  1  0
 33 34  1  0
 31 35  1  0
 35 36  1  1
 35 37  1  0
 37 38  1  6
 37 39  1  0
 27 40  1  0
 40 41  1  1
 40 42  1  0
 42 43  1  6
 44 43  1  1
 44 45  1  0
 45 46  1  0
 46 47  1  1
 46 48  1  0
 48 49  1  0
 49 50  1  1
 50 51  1  0
 50 52  1  0
 49 53  1  0
 53 54  1  6
 42  4  1  0
 53 44  1  0
 39 29  1  0
M  END
>  <ChEMBL_IDs>  (152) 
CHEMBL1774301

>  <target_organism>  (152) 
Homo sapiens,None,Escherichia coli K-12

>  <target_molecule_pref_name>  (152) 
None

>  <# Known Targets>  (152) 
1.0

>  <Known Targets>  (152) 
CHEMBL612888

>  <smiles>  (152) 
C=CO[C@]1(C)C[C@@H](C)CN(C)[C@H](C)[C@@H](O)[C@](C)(O)[C@@H](CC)OC(=O)[C@H](C)[C@@H](O[C@H]2C[C@@](C)(OC)[C@@H](O)[C@H](C)O2)[C@H](C)[C@H]1O[C@@H]1O[C@H](C)C[C@H](N(C)C)[C@H]1O

$$$$

     RDKit          2D

 54 56  0  0  0  0  0  0  0  0999 V2000
    7.3573    1.2990    0.0000 C   0  0  0  0  0  0  0  0  0  0  0  0
    5.8573    1.2990    0.0000 C   0  0  0  0  0  0  0  0  0  0  0  0
    5.1073    0.0000    0.0000 C   0  0  0  0  0  0  0  0  0  0  0  0
    3.6073    0.0000    0.0000 N   0  0  0  0  0  0  0  0  0  0  0  0
    3.2954    1.4672    0.0000 C   0  0  0  0  0  0  0  0  0  0  0  0
    2.4138    2.6807    0.0000 C   0  0  0  0  0  0  0  0  0  0  0  0
    3.4175    3.7955    0.0000 C   0  0  0  0  0  0  0  0  0  0  0  0
    1.1147    3.4307    0.0000 C   0  0  0  0  0  0  0  0  0  0  0  0
   -0.3771    3.5875    0.0000 C   0  0  0  0  0  0  0  0  0  0  0  0
   -1.3412    4.7366    0.0000 C   0  0  0  0  0  0  0  0  0  0  0  0
    0.3271    4.9120    0.0000 O   0  0  0  0  0  0  0  0  0  0  0  0
   -1.8037    3.1240    0.0000 C   0  0  0  0  0  0  0  0  0  0  0  0
   -2.5537    4.4231    0.0000 O   0  0  0  0  0  0  0  0  0  0  0  0
   -1.8037    5.7221    0.0000 C   0  0  0  0  0  0  0  0  0  0  0  0
   -0.3037    5.7221    0.0000 O   0  0  0  0  0  0  0  0  0  0  0  0
    0.4463    7.0211    0.0000 C   0  0  0  0  0  0  0  0  0  0  0  0
    1.9463    7.0211    0.0000 C   0  0  0  0  0  0  0  0  0  0  0  0
   -0.3037    8.3202    0.0000 C   0  0  0  0  0  0  0  0  0  0  0  0
   -1.8037    8.3202    0.0000 C   0  0  0  0  0  0  0  0  0  0  0  0
   -2.5537    9.6192    0.0000 N   0  0  0  0  0  0  0  0  0  0  0  0
   -1.8037   10.9182    0.0000 C   0  0  0  0  0  0  0  0  0  0  0  0
   -4.0537    9.6192    0.0000 C   0  0  0  0  0  0  0  0  0  0  0  0
   -2.5537    7.0211    0.0000 C   0  0  0  0  0  0  0  0  0  0  0  0
   -4.0537    7.0211    0.0000 O   0  0  0  0  0  0  0  0  0  0  0  0
   -2.9184    2.1203    0.0000 C   0  0  0  0  0  0  0  0  0  0  0  0
   -4.1319    3.0020    0.0000 C   0  0  0  0  0  0  0  0  0  0  0  0
   -3.5285    0.7500    0.0000 C   0  0  0  0  0  0  0  0  0  0  0  0
   -4.9957    1.0619    0.0000 O   0  0  0  0  0  0  0  0  0  0  0  0
   -5.9994   -0.0528    0.0000 C   0  0  0  0  0  0  0  0  0  0  0  0
   -7.4666    0.2590    0.0000 C   0  0  0  0  0  0  0  0  0  0  0  0
   -8.4703   -0.8557    0.0000 C   0  0  0  0  0  0  0  0  0  0  0  0
   -9.7947   -1.5599    0.0000 C   0  0  0  0  0  0  0  0  0  0  0  0
   -9.3938    0.3263    0.0000 O   0  0  0  0  0  0  0  0  0  0  0  0
  -10.8792    0.1176    0.0000 C   0  0  0  0  0  0  0  0  0  0  0  0
   -8.0068   -2.2823    0.0000 C   0  0  0  0  0  0  0  0  0  0  0  0
   -9.0105   -3.3970    0.0000 O   0  0  0  0  0  0  0  0  0  0  0  0
   -6.5396   -2.5942    0.0000 C   0  0  0  0  0  0  0  0  0  0  0  0
   -6.0760   -4.0207    0.0000 C   0  0  0  0  0  0  0  0  0  0  0  0
   -5.5359   -1.4794    0.0000 O   0  0  0  0  0  0  0  0  0  0  0  0
   -3.5285   -0.7500    0.0000 C   0  0  0  0  0  0  0  0  0  0  0  0
   -4.7418   -1.3419    0.0000 C   0  0  0  0  0  0  0  0  0  0  0  0
   -2.9184   -2.1203    0.0000 C   0  0  0  0  0  0  0  0  0  0  0  0
   -4.1319   -3.0020    0.0000 O   0  0  0  0  0  0  0  0  0  0  0  0
   -1.8037   -3.1240    0.0000 O   0  0  0  0  0  0  0  0  0  0  0  0
   -0.3771   -3.5875    0.0000 C   0  0  0  0  0  0  0  0  0  0  0  0
   -0.5339   -5.0793    0.0000 C   0  0  0  0  0  0  0  0  0  0  0  0
   -1.9042   -5.6894    0.0000 C   0  0  0  0  0  0  0  0  0  0  0  0
    1.1147   -3.4307    0.0000 C   0  0  0  0  0  0  0  0  0  0  0  0
    2.2967   -4.3542    0.0000 C   0  0  0  0  0  0  0  0  0  0  0  0
    0.7013   -4.8726    0.0000 O   0  0  0  0  0  0  0  0  0  0  0  0
    2.4138   -2.6807    0.0000 C   0  0  0  0  0  0  0  0  0  0  0  0
    3.4175   -3.7955    0.0000 O   0  0  0  0  0  0  0  0  0  0  0  0
    3.2954   -1.4672    0.0000 C   0  0  0  0  0  0  0  0  0  0  0  0
    4.6658   -2.0773    0.0000 C   0  0  0  0  0  0  0  0  0  0  0  0
  1  2  2  0
  2  3  1  0
  3  4  1  0
  4  5  1  0
  5  6  1  0
  6  7  1  1
  6  8  1  0
  8  9  1  0
  9 10  1  1
  9 11  1  0
  9 12  1  0
 12 13  1  1
 14 13  1  1
 14 15  1  0
 15 16  1  0
 16 17  1  1
 16 18  1  0
 18 19  1  0
 19 20  1  1
 20 21  1  0
 20 22  1  0
 19 23  1  0
 23 24  1  6
 12 25  1  0
 25 26  1  6
 25 27  1  0
 27 28  1  1
 29 28  1  6
 29 30  1  0
 30 31  1  0
 31 32  1  1
 31 33  1  0
 33 34  1  0
 31 35  1  0
 35 36  1  6
 35 37  1  0
 37 38  1  1
 37 39  1  0
 27 40  1  0
 40 41  1  6
 40 42  1  0
 42 43  2  0
 42 44  1  0
 44 45  1  0
 45 46  1  1
 46 47  1  0
 45 48  1  0
 48 49  1  1
 48 50  1  0
 48 51  1  0
 51 52  1  1
 51 53  1  0
 53 54  1  6
 53  4  1  0
 23 14  1  0
 39 29  1  0
M  END
>  <ChEMBL_IDs>  (153) 
CHEMBL1774291

>  <target_organism>  (153) 
Homo sapiens,None,Escherichia coli K-12

>  <target_molecule_pref_name>  (153) 
None

>  <# Known Targets>  (153) 
1.0

>  <Known Targets>  (153) 
CHEMBL612888

>  <smiles>  (153) 
C=CCN1C[C@H](C)C[C@@](C)(O)[C@H](O[C@@H]2O[C@H](C)C[C@H](N(C)C)[C@H]2O)[C@@H](C)[C@H](O[C@H]2C[C@@](C)(OC)[C@@H](O)[C@H](C)O2)[C@@H](C)C(=O)O[C@H](CC)[C@@](C)(O)[C@H](O)[C@H]1C

$$$$

     RDKit          2D

 54 56  0  0  0  0  0  0  0  0999 V2000
   10.0181   -7.7081    0.0000 C   0  0  0  0  0  0  0  0  0  0  0  0
    9.9060   -6.2123    0.0000 C   0  0  0  0  0  0  0  0  0  0  0  0
   11.1454   -5.3673    0.0000 C   0  0  0  0  0  0  0  0  0  0  0  0
    8.5546   -5.5615    0.0000 C   0  0  0  0  0  0  0  0  0  0  0  0
    7.3152   -6.4065    0.0000 N   0  0  0  0  0  0  0  0  0  0  0  0
    7.4273   -7.9023    0.0000 C   0  0  0  0  0  0  0  0  0  0  0  0
    5.9638   -5.7557    0.0000 C   0  0  0  0  0  0  0  0  0  0  0  0
    4.7244   -6.6006    0.0000 C   0  0  0  0  0  0  0  0  0  0  0  0
    3.3730   -5.9498    0.0000 C   0  0  0  0  0  0  0  0  0  0  0  0
    2.1336   -6.7948    0.0000 C   0  0  0  0  0  0  0  0  0  0  0  0
    3.2609   -4.4540    0.0000 O   0  0  0  0  0  0  0  0  0  0  0  0
    4.5002   -3.6090    0.0000 C   0  0  0  0  0  0  0  0  0  0  0  0
    4.3881   -2.1132    0.0000 O   0  0  0  0  0  0  0  0  0  0  0  0
    3.0367   -1.4624    0.0000 C   0  0  0  0  0  0  0  0  0  0  0  0
    3.3705    0.0000    0.0000 C   0  0  0  0  0  0  0  0  0  0  0  0
    4.8705    0.0000    0.0000 C   0  0  0  0  0  0  0  0  0  0  0  0
    3.0367    1.4624    0.0000 C   0  0  0  0  0  0  0  0  0  0  0  0
    4.3881    2.1132    0.0000 O   0  0  0  0  0  0  0  0  0  0  0  0
    4.5002    3.6090    0.0000 C   0  0  0  0  0  0  0  0  0  0  0  0
    5.8517    4.2598    0.0000 C   0  0  0  0  0  0  0  0  0  0  0  0
    5.9638    5.7557    0.0000 C   0  0  0  0  0  0  0  0  0  0  0  0
    6.5807    7.1229    0.0000 C   0  0  0  0  0  0  0  0  0  0  0  0
    7.4174    5.3855    0.0000 O   0  0  0  0  0  0  0  0  0  0  0  0
    8.4648    6.4593    0.0000 C   0  0  0  0  0  0  0  0  0  0  0  0
    4.7244    6.6006    0.0000 C   0  0  0  0  0  0  0  0  0  0  0  0
    4.8365    8.0964    0.0000 O   0  0  0  0  0  0  0  0  0  0  0  0
    3.3730    5.9498    0.0000 C   0  0  0  0  0  0  0  0  0  0  0  0
    2.1336    6.7948    0.0000 C   0  0  0  0  0  0  0  0  0  0  0  0
    3.2609    4.4540    0.0000 O   0  0  0  0  0  0  0  0  0  0  0  0
    2.1015    2.6351    0.0000 C   0  0  0  0  0  0  0  0  0  0  0  0
    2.6628    3.8629    0.0000 C   0  0  0  0  0  0  0  0  0  0  0  0
    0.7500    3.2860    0.0000 C   0  0  0  0  0  0  0  0  0  0  0  0
    1.0838    4.7484    0.0000 O   0  0  0  0  0  0  0  0  0  0  0  0
   -0.7500    3.2860    0.0000 O   0  0  0  0  0  0  0  0  0  0  0  0
   -2.1015    2.6351    0.0000 C   0  0  0  0  0  0  0  0  0  0  0  0
   -3.0367    3.8079    0.0000 C   0  0  0  0  0  0  0  0  0  0  0  0
   -2.4887    5.2042    0.0000 C   0  0  0  0  0  0  0  0  0  0  0  0
   -3.0367    1.4624    0.0000 C   0  0  0  0  0  0  0  0  0  0  0  0
   -4.5199    1.2388    0.0000 C   0  0  0  0  0  0  0  0  0  0  0  0
   -3.7867    2.7614    0.0000 O   0  0  0  0  0  0  0  0  0  0  0  0
   -3.3705    0.0000    0.0000 C   0  0  0  0  0  0  0  0  0  0  0  0
   -4.8705    0.0000    0.0000 O   0  0  0  0  0  0  0  0  0  0  0  0
   -3.0367   -1.4624    0.0000 C   0  0  0  0  0  0  0  0  0  0  0  0
   -4.3881   -2.1132    0.0000 C   0  0  0  0  0  0  0  0  0  0  0  0
   -2.1015   -2.6351    0.0000 C   0  0  0  0  0  0  0  0  0  0  0  0
   -3.0367   -3.8079    0.0000 O   0  0  0  0  0  0  0  0  0  0  0  0
   -0.7500   -3.2860    0.0000 C   0  0  0  0  0  0  0  0  0  0  0  0
   -1.0838   -4.7484    0.0000 C   0  0  0  0  0  0  0  0  0  0  0  0
    0.7500   -3.2860    0.0000 C   0  0  0  0  0  0  0  0  0  0  0  0
    2.1015   -2.6351    0.0000 C   0  0  0  0  0  0  0  0  0  0  0  0
    3.5348   -3.0773    0.0000 C   0  0  0  0  0  0  0  0  0  0  0  0
    2.2135   -4.1309    0.0000 O   0  0  0  0  0  0  0  0  0  0  0  0
    5.8517   -4.2598    0.0000 C   0  0  0  0  0  0  0  0  0  0  0  0
    7.0910   -3.4149    0.0000 O   0  0  0  0  0  0  0  0  0  0  0  0
  1  2  2  0
  2  3  1  0
  2  4  1  0
  4  5  1  0
  5  6  1  0
  7  5  1  1
  7  8  1  0
  8  9  1  0
  9 10  1  1
  9 11  1  0
 11 12  1  0
 12 13  1  1
 14 13  1  1
 14 15  1  0
 15 16  1  6
 15 17  1  0
 17 18  1  1
 19 18  1  1
 19 20  1  0
 20 21  1  0
 21 22  1  1
 21 23  1  0
 23 24  1  0
 21 25  1  0
 25 26  1  6
 25 27  1  0
 27 28  1  1
 27 29  1  0
 17 30  1  0
 30 31  1  6
 30 32  1  0
 32 33  2  0
 32 34  1  0
 34 35  1  0
 35 36  1  1
 36 37  1  0
 35 38  1  0
 38 39  1  1
 38 40  1  0
 38 41  1  0
 41 42  1  1
 41 43  1  0
 43 44  1  6
 43 45  1  0
 45 46  1  6
 45 47  1  0
 47 48  1  1
 47 49  1  0
 49 50  1  0
 50 51  1  1
 50 52  1  0
 12 53  1  0
 53 54  1  6
 53  7  1  0
 50 14  1  0
 29 19  1  0
M  END
>  <ChEMBL_IDs>  (154) 
CHEMBL1256536

>  <target_organism>  (154) 
nan

>  <target_molecule_pref_name>  (154) 
None

>  <# Known Targets>  (154) 
1.0

>  <Known Targets>  (154) 
CHEMBL5306

>  <smiles>  (154) 
C=C(C)CN(C)[C@H]1C[C@@H](C)O[C@@H](O[C@@H]2[C@@H](C)[C@H](O[C@@H]3C[C@@](C)(OC)[C@@H](O)[C@H](C)O3)[C@@H](C)C(=O)O[C@H](CC)[C@@](C)(O)[C@H](O)[C@@H](C)[C@@H](O)[C@H](C)C[C@@]2(C)O)[C@@H]1O

$$$$

     RDKit          2D

 55 57  0  0  0  0  0  0  0  0999 V2000
    9.3705    2.5981    0.0000 C   0  0  0  0  0  0  0  0  0  0  0  0
    7.8705    2.5981    0.0000 C   0  0  0  0  0  0  0  0  0  0  0  0
    7.1205    1.2990    0.0000 C   0  0  0  0  0  0  0  0  0  0  0  0
    5.6205    1.2990    0.0000 O   0  0  0  0  0  0  0  0  0  0  0  0
    4.8705    0.0000    0.0000 N   0  0  0  0  0  0  0  0  0  0  0  0
    3.3705    0.0000    0.0000 C   0  0  0  0  0  0  0  0  0  0  0  0
    3.0367   -1.4624    0.0000 C   0  0  0  0  0  0  0  0  0  0  0  0
    4.3881   -2.1132    0.0000 C   0  0  0  0  0  0  0  0  0  0  0  0
    2.1015   -2.6351    0.0000 C   0  0  0  0  0  0  0  0  0  0  0  0
    3.0367   -3.8079    0.0000 O   0  0  0  0  0  0  0  0  0  0  0  0
    0.7500   -3.2860    0.0000 C   0  0  0  0  0  0  0  0  0  0  0  0
    1.8496   -4.3062    0.0000 C   0  0  0  0  0  0  0  0  0  0  0  0
    0.2020   -4.6823    0.0000 O   0  0  0  0  0  0  0  0  0  0  0  0
   -0.7500   -3.2860    0.0000 C   0  0  0  0  0  0  0  0  0  0  0  0
   -1.0838   -4.7484    0.0000 C   0  0  0  0  0  0  0  0  0  0  0  0
   -2.5171   -5.1905    0.0000 C   0  0  0  0  0  0  0  0  0  0  0  0
   -2.1015   -2.6351    0.0000 O   0  0  0  0  0  0  0  0  0  0  0  0
   -3.0367   -1.4624    0.0000 C   0  0  0  0  0  0  0  0  0  0  0  0
   -4.3881   -2.1132    0.0000 O   0  0  0  0  0  0  0  0  0  0  0  0
   -3.3705    0.0000    0.0000 C   0  0  0  0  0  0  0  0  0  0  0  0
   -4.6804   -0.3267    0.0000 C   0  0  0  0  0  0  0  0  0  0  0  0
   -3.0367    1.4624    0.0000 C   0  0  0  0  0  0  0  0  0  0  0  0
   -4.3881    2.1132    0.0000 O   0  0  0  0  0  0  0  0  0  0  0  0
   -5.6275    1.2682    0.0000 C   0  0  0  0  0  0  0  0  0  0  0  0
   -6.9790    1.9191    0.0000 C   0  0  0  0  0  0  0  0  0  0  0  0
   -8.2183    1.0741    0.0000 C   0  0  0  0  0  0  0  0  0  0  0  0
   -9.6719    0.7039    0.0000 C   0  0  0  0  0  0  0  0  0  0  0  0
   -8.8352    2.4413    0.0000 O   0  0  0  0  0  0  0  0  0  0  0  0
  -10.3278    2.5907    0.0000 C   0  0  0  0  0  0  0  0  0  0  0  0
   -8.1062   -0.4217    0.0000 C   0  0  0  0  0  0  0  0  0  0  0  0
   -9.3456   -1.2667    0.0000 O   0  0  0  0  0  0  0  0  0  0  0  0
   -6.7548   -1.0725    0.0000 C   0  0  0  0  0  0  0  0  0  0  0  0
   -6.6427   -2.5684    0.0000 C   0  0  0  0  0  0  0  0  0  0  0  0
   -5.5154   -0.2276    0.0000 O   0  0  0  0  0  0  0  0  0  0  0  0
   -2.1015    2.6351    0.0000 C   0  0  0  0  0  0  0  0  0  0  0  0
   -3.0367    3.8079    0.0000 C   0  0  0  0  0  0  0  0  0  0  0  0
   -0.7500    3.2860    0.0000 C   0  0  0  0  0  0  0  0  0  0  0  0
   -1.0838    4.7484    0.0000 O   0  0  0  0  0  0  0  0  0  0  0  0
    0.0158    5.7686    0.0000 C   0  0  0  0  0  0  0  0  0  0  0  0
    1.4492    5.3265    0.0000 O   0  0  0  0  0  0  0  0  0  0  0  0
    2.5487    6.3467    0.0000 C   0  0  0  0  0  0  0  0  0  0  0  0
    3.9821    5.9046    0.0000 C   0  0  0  0  0  0  0  0  0  0  0  0
    2.2150    7.8091    0.0000 C   0  0  0  0  0  0  0  0  0  0  0  0
    0.7816    8.2513    0.0000 C   0  0  0  0  0  0  0  0  0  0  0  0
    0.4478    9.7137    0.0000 N   0  0  0  0  0  0  0  0  0  0  0  0
    1.5474   10.7339    0.0000 C   0  0  0  0  0  0  0  0  0  0  0  0
   -0.9855   10.1558    0.0000 C   0  0  0  0  0  0  0  0  0  0  0  0
   -0.3180    7.2310    0.0000 C   0  0  0  0  0  0  0  0  0  0  0  0
   -1.7513    7.6731    0.0000 O   0  0  0  0  0  0  0  0  0  0  0  0
    0.7500    3.2860    0.0000 C   0  0  0  0  0  0  0  0  0  0  0  0
    0.2020    4.6823    0.0000 C   0  0  0  0  0  0  0  0  0  0  0  0
    1.8496    4.3062    0.0000 O   0  0  0  0  0  0  0  0  0  0  0  0
    2.1015    2.6351    0.0000 C   0  0  0  0  0  0  0  0  0  0  0  0
    3.0367    1.4624    0.0000 C   0  0  0  0  0  0  0  0  0  0  0  0
    4.3881    2.1132    0.0000 C   0  0  0  0  0  0  0  0  0  0  0  0
  1  2  2  0
  2  3  1  0
  3  4  1  0
  4  5  1  0
  5  6  2  0
  6  7  1  0
  7  8  1  6
  7  9  1  0
  9 10  1  1
  9 11  1  0
 11 12  1  1
 11 13  1  0
 11 14  1  0
 14 15  1  1
 15 16  1  0
 14 17  1  0
 17 18  1  0
 18 19  2  0
 18 20  1  0
 20 21  1  6
 20 22  1  0
 22 23  1  1
 24 23  1  6
 24 25  1  0
 25 26  1  0
 26 27  1  1
 26 28  1  0
 28 29  1  0
 26 30  1  0
 30 31  1  6
 30 32  1  0
 32 33  1  1
 32 34  1  0
 22 35  1  0
 35 36  1  6
 35 37  1  0
 37 38  1  1
 39 38  1  1
 39 40  1  0
 40 41  1  0
 41 42  1  1
 41 43  1  0
 43 44  1  0
 44 45  1  1
 45 46  1  0
 45 47  1  0
 44 48  1  0
 48 49  1  6
 37 50  1  0
 50 51  1  1
 50 52  1  0
 50 53  1  0
 53 54  1  0
 54 55  1  1
 54  6  1  0
 34 24  1  0
 48 39  1  0
M  END
>  <ChEMBL_IDs>  (155) 
CHEMBL1774288

>  <target_organism>  (155) 
Homo sapiens,None,Escherichia coli K-12

>  <target_molecule_pref_name>  (155) 
None

>  <# Known Targets>  (155) 
1.0

>  <Known Targets>  (155) 
CHEMBL612888

>  <smiles>  (155) 
C=CCO/N=C1/[C@H](C)[C@@H](O)[C@](C)(O)[C@@H](CC)OC(=O)[C@H](C)[C@@H](O[C@H]2C[C@@](C)(OC)[C@@H](O)[C@H](C)O2)[C@H](C)[C@@H](O[C@@H]2O[C@H](C)C[C@H](N(C)C)[C@H]2O)[C@](C)(O)C[C@H]1C

$$$$

     RDKit          2D

 66 68  0  0  0  0  0  0  0  0999 V2000
    5.8573   -1.2990    0.0000 C   0  0  0  0  0  0  0  0  0  0  0  0
    5.1073    0.0000    0.0000 C   0  0  0  0  0  0  0  0  0  0  0  0
    3.6073    0.0000    0.0000 C   0  0  0  0  0  0  0  0  0  0  0  0
    3.2954    1.4672    0.0000 O   0  0  0  0  0  0  0  0  0  0  0  0
    2.4138    2.6807    0.0000 C   0  0  0  0  0  0  0  0  0  0  0  0
    3.4175    3.7955    0.0000 O   0  0  0  0  0  0  0  0  0  0  0  0
    1.1147    3.4307    0.0000 C   0  0  0  0  0  0  0  0  0  0  0  0
    1.8302    4.5756    0.0000 C   0  0  0  0  0  0  0  0  0  0  0  0
   -0.3771    3.5875    0.0000 C   0  0  0  0  0  0  0  0  0  0  0  0
   -0.5339    5.0793    0.0000 O   0  0  0  0  0  0  0  0  0  0  0  0
    0.6797    5.9610    0.0000 C   0  0  0  0  0  0  0  0  0  0  0  0
    0.5229    7.4528    0.0000 C   0  0  0  0  0  0  0  0  0  0  0  0
    1.7364    8.3345    0.0000 C   0  0  0  0  0  0  0  0  0  0  0  0
    2.5752    9.5780    0.0000 C   0  0  0  0  0  0  0  0  0  0  0  0
    0.6574    9.3764    0.0000 O   0  0  0  0  0  0  0  0  0  0  0  0
    1.0203   10.8319    0.0000 C   0  0  0  0  0  0  0  0  0  0  0  0
    3.1067    7.7244    0.0000 C   0  0  0  0  0  0  0  0  0  0  0  0
    4.3202    8.6060    0.0000 O   0  0  0  0  0  0  0  0  0  0  0  0
    3.2635    6.2326    0.0000 C   0  0  0  0  0  0  0  0  0  0  0  0
    4.6338    5.6225    0.0000 C   0  0  0  0  0  0  0  0  0  0  0  0
    2.0500    5.3509    0.0000 O   0  0  0  0  0  0  0  0  0  0  0  0
   -1.8037    3.1240    0.0000 C   0  0  0  0  0  0  0  0  0  0  0  0
   -2.5537    4.4231    0.0000 C   0  0  0  0  0  0  0  0  0  0  0  0
   -2.9184    2.1203    0.0000 C   0  0  0  0  0  0  0  0  0  0  0  0
   -4.1319    3.0020    0.0000 O   0  0  0  0  0  0  0  0  0  0  0  0
   -5.5022    2.3919    0.0000 C   0  0  0  0  0  0  0  0  0  0  0  0
   -6.7157    3.2736    0.0000 O   0  0  0  0  0  0  0  0  0  0  0  0
   -8.0861    2.6635    0.0000 C   0  0  0  0  0  0  0  0  0  0  0  0
   -9.2996    3.5451    0.0000 C   0  0  0  0  0  0  0  0  0  0  0  0
   -8.2428    1.1717    0.0000 C   0  0  0  0  0  0  0  0  0  0  0  0
   -7.0293    0.2900    0.0000 C   0  0  0  0  0  0  0  0  0  0  0  0
   -7.1861   -1.2018    0.0000 N   0  0  0  0  0  0  0  0  0  0  0  0
   -8.5564   -1.8119    0.0000 C   0  0  0  0  0  0  0  0  0  0  0  0
   -5.9726   -2.0835    0.0000 C   0  0  0  0  0  0  0  0  0  0  0  0
   -5.6590    0.9001    0.0000 C   0  0  0  0  0  0  0  0  0  0  0  0
   -5.0760    0.3564    0.0000 O   0  0  0  0  0  0  0  0  0  0  0  0
   -3.5285    0.7500    0.0000 C   0  0  0  0  0  0  0  0  0  0  0  0
   -4.2257    0.3635    0.0000 C   0  0  0  0  0  0  0  0  0  0  0  0
   -4.5705    1.8290    0.0000 O   0  0  0  0  0  0  0  0  0  0  0  0
   -3.5285   -0.7500    0.0000 C   0  0  0  0  0  0  0  0  0  0  0  0
   -2.9184   -2.1203    0.0000 C   0  0  0  0  0  0  0  0  0  0  0  0
   -4.1319   -3.0020    0.0000 C   0  0  0  0  0  0  0  0  0  0  0  0
   -1.8037   -3.1240    0.0000 C   0  0  0  0  0  0  0  0  0  0  0  0
   -0.3771   -3.5875    0.0000 N   0  0  0  0  0  0  0  0  0  0  0  0
   -0.5339   -5.0793    0.0000 C   0  0  0  0  0  0  0  0  0  0  0  0
   -1.9042   -5.6894    0.0000 C   0  0  0  0  0  0  0  0  0  0  0  0
   -2.0610   -7.1812    0.0000 C   0  0  0  0  0  0  0  0  0  0  0  0
   -3.4313   -7.7913    0.0000 N   0  0  0  0  0  0  0  0  0  0  0  0
   -3.5881   -9.2831    0.0000 C   0  0  0  0  0  0  0  0  0  0  0  0
   -2.3746  -10.1648    0.0000 O   0  0  0  0  0  0  0  0  0  0  0  0
   -4.9584   -9.8932    0.0000 N   0  0  0  0  0  0  0  0  0  0  0  0
   -5.1152  -11.3850    0.0000 C   0  0  0  0  0  0  0  0  0  0  0  0
   -6.6070  -11.2282    0.0000 C   0  0  0  0  0  0  0  0  0  0  0  0
   -3.6234  -11.5418    0.0000 C   0  0  0  0  0  0  0  0  0  0  0  0
   -5.2720  -12.8768    0.0000 C   0  0  0  0  0  0  0  0  0  0  0  0
   -4.0585  -13.7584    0.0000 C   0  0  0  0  0  0  0  0  0  0  0  0
   -4.9401  -14.9720    0.0000 C   0  0  0  0  0  0  0  0  0  0  0  0
   -3.1768  -12.5449    0.0000 C   0  0  0  0  0  0  0  0  0  0  0  0
   -2.8449  -14.6401    0.0000 C   0  0  0  0  0  0  0  0  0  0  0  0
    1.1147   -3.4307    0.0000 C   0  0  0  0  0  0  0  0  0  0  0  0
    1.5782   -4.8573    0.0000 C   0  0  0  0  0  0  0  0  0  0  0  0
    2.4138   -2.6807    0.0000 C   0  0  0  0  0  0  0  0  0  0  0  0
    3.4175   -3.7955    0.0000 O   0  0  0  0  0  0  0  0  0  0  0  0
    3.2954   -1.4672    0.0000 C   0  0  0  0  0  0  0  0  0  0  0  0
    4.7726   -1.2067    0.0000 C   0  0  0  0  0  0  0  0  0  0  0  0
    4.0903   -2.7393    0.0000 O   0  0  0  0  0  0  0  0  0  0  0  0
  1  2  1  0
  3  2  1  6
  3  4  1  0
  4  5  1  0
  5  6  2  0
  5  7  1  0
  7  8  1  1
  7  9  1  0
  9 10  1  6
 11 10  1  1
 11 12  1  0
 12 13  1  0
 13 14  1  6
 13 15  1  0
 15 16  1  0
 13 17  1  0
 17 18  1  1
 17 19  1  0
 19 20  1  6
 19 21  1  0
  9 22  1  0
 22 23  1  1
 22 24  1  0
 24 25  1  6
 26 25  1  1
 26 27  1  0
 27 28  1  0
 28 29  1  1
 28 30  1  0
 30 31  1  0
 31 32  1  1
 32 33  1  0
 32 34  1  0
 31 35  1  0
 35 36  1  6
 24 37  1  0
 37 38  1  6
 37 39  1  0
 37 40  1  0
 40 41  1  0
 41 42  1  6
 41 43  1  0
 43 44  1  0
 44 45  1  0
 45 46  1  0
 46 47  1  0
 47 48  1  0
 48 49  1  0
 49 50  2  0
 49 51  1  0
 51 52  1  0
 52 53  1  0
 52 54  1  0
 52 55  1  0
 55 56  1  0
 56 57  1  0
 56 58  1  0
 56 59  1  0
 44 60  1  0
 60 61  1  1
 60 62  1  0
 62 63  1  6
 62 64  1  0
 64 65  1  6
 64 66  1  0
 64  3  1  0
 21 11  1  0
 35 26  1  0
M  END
>  <ChEMBL_IDs>  (156) 
CHEMBL1682596

>  <target_organism>  (156) 
Homo sapiens,None,Escherichia coli K-12

>  <target_molecule_pref_name>  (156) 
None

>  <# Known Targets>  (156) 
1.0

>  <Known Targets>  (156) 
CHEMBL364

>  <smiles>  (156) 
CC[C@H]1OC(=O)[C@H](C)[C@@H](O[C@H]2C[C@@](C)(OC)[C@@H](O)[C@H](C)O2)[C@H](C)[C@@H](O[C@@H]2O[C@H](C)C[C@H](N(C)C)[C@H]2O)[C@](C)(O)C[C@@H](C)CN(CCCNC(=O)NC(C)(C)CC(C)(C)C)[C@H](C)[C@@H](O)[C@]1(C)O

$$$$

     RDKit          2D

 41 43  0  0  0  0  0  0  0  0999 V2000
    8.0606    2.3550    0.0000 C   0  0  0  0  0  0  0  0  0  0  0  0
    6.6378    2.8300    0.0000 C   0  0  0  0  0  0  0  0  0  0  0  0
    5.5150    1.8353    0.0000 C   0  0  0  0  0  0  0  0  0  0  0  0
    4.2806    2.6874    0.0000 O   0  0  0  0  0  0  0  0  0  0  0  0
    2.7915    2.8682    0.0000 C   0  0  0  0  0  0  0  0  0  0  0  0
    2.6107    4.3573    0.0000 O   0  0  0  0  0  0  0  0  0  0  0  0
    1.3890    2.3363    0.0000 C   0  0  0  0  0  0  0  0  0  0  0  0
    0.5369    3.5708    0.0000 C   0  0  0  0  0  0  0  0  0  0  0  0
    0.3943    1.2135    0.0000 C   0  0  0  0  0  0  0  0  0  0  0  0
    0.4989    2.7099    0.0000 O   0  0  0  0  0  0  0  0  0  0  0  0
    1.2760    0.0000    0.0000 O   0  0  0  0  0  0  0  0  0  0  0  0
    0.3943   -1.2135    0.0000 C   0  0  0  0  0  0  0  0  0  0  0  0
    0.6029   -2.2869    0.0000 C   0  0  0  0  0  0  0  0  0  0  0  0
    1.3890   -2.8221    0.0000 C   0  0  0  0  0  0  0  0  0  0  0  0
    2.7915   -3.3540    0.0000 C   0  0  0  0  0  0  0  0  0  0  0  0
    2.7936   -4.8540    0.0000 C   0  0  0  0  0  0  0  0  0  0  0  0
    4.2806   -3.1732    0.0000 C   0  0  0  0  0  0  0  0  0  0  0  0
    4.8125   -4.5757    0.0000 N   0  0  0  0  0  0  0  0  0  0  0  0
    3.8638   -5.7376    0.0000 O   0  0  0  0  0  0  0  0  0  0  0  0
    5.5150   -2.3211    0.0000 C   0  0  0  0  0  0  0  0  0  0  0  0
    6.6378   -3.3158    0.0000 C   0  0  0  0  0  0  0  0  0  0  0  0
    6.2121   -0.9929    0.0000 C   0  0  0  0  0  0  0  0  0  0  0  0
    7.6685   -1.3519    0.0000 O   0  0  0  0  0  0  0  0  0  0  0  0
    6.2121    0.5071    0.0000 C   0  0  0  0  0  0  0  0  0  0  0  0
    7.2068    1.6299    0.0000 C   0  0  0  0  0  0  0  0  0  0  0  0
    7.6147   -0.0248    0.0000 O   0  0  0  0  0  0  0  0  0  0  0  0
   -1.0323   -0.7500    0.0000 C   0  0  0  0  0  0  0  0  0  0  0  0
   -2.2458   -1.6317    0.0000 O   0  0  0  0  0  0  0  0  0  0  0  0
   -2.0890   -3.1235    0.0000 C   0  0  0  0  0  0  0  0  0  0  0  0
   -3.3025   -4.0051    0.0000 O   0  0  0  0  0  0  0  0  0  0  0  0
   -3.1458   -5.4969    0.0000 C   0  0  0  0  0  0  0  0  0  0  0  0
   -4.3593   -6.3786    0.0000 C   0  0  0  0  0  0  0  0  0  0  0  0
   -1.7754   -6.1070    0.0000 C   0  0  0  0  0  0  0  0  0  0  0  0
   -0.5619   -5.2253    0.0000 C   0  0  0  0  0  0  0  0  0  0  0  0
    0.8084   -5.8355    0.0000 N   0  0  0  0  0  0  0  0  0  0  0  0
    0.9652   -7.3272    0.0000 C   0  0  0  0  0  0  0  0  0  0  0  0
    2.1204   -5.1083    0.0000 C   0  0  0  0  0  0  0  0  0  0  0  0
   -0.7187   -3.7336    0.0000 C   0  0  0  0  0  0  0  0  0  0  0  0
    0.2377   -3.2035    0.0000 O   0  0  0  0  0  0  0  0  0  0  0  0
   -1.0323    0.7500    0.0000 C   0  0  0  0  0  0  0  0  0  0  0  0
   -2.2458    1.6317    0.0000 C   0  0  0  0  0  0  0  0  0  0  0  0
  1  2  1  0
  3  2  1  6
  3  4  1  0
  4  5  1  0
  5  6  2  0
  5  7  1  0
  7  8  1  1
  7  9  1  0
  9 10  1  6
  9 11  1  0
 11 12  1  0
 12 13  1  6
 12 14  1  0
 14 15  1  0
 15 16  1  6
 15 17  1  0
 17 18  2  0
 18 19  1  0
 17 20  1  0
 20 21  1  1
 20 22  1  0
 22 23  1  6
 22 24  1  0
 24 25  1  6
 24 26  1  0
 12 27  1  0
 27 28  1  6
 29 28  1  1
 29 30  1  0
 30 31  1  0
 31 32  1  1
 31 33  1  0
 33 34  1  0
 34 35  1  1
 35 36  1  0
 35 37  1  0
 34 38  1  0
 38 39  1  6
 27 40  1  0
 40 41  1  1
 24  3  1  0
 38 29  1  0
 40  9  1  0
M  END
>  <ChEMBL_IDs>  (157) 
CHEMBL2368027

>  <target_organism>  (157) 
Homo sapiens

>  <target_molecule_pref_name>  (157) 
nan

>  <# Known Targets>  (157) 
nan

>  <Known Targets>  (157) 
nan

>  <smiles>  (157) 
CC[C@H]1OC(=O)[C@H](C)[C@@]2(O)O[C@@](C)(C[C@@H](C)/C(=N\O)[C@H](C)[C@@H](O)[C@]1(C)O)[C@H](O[C@@H]1O[C@H](C)C[C@H](N(C)C)[C@H]1O)[C@H]2C

$$$$

     RDKit          2D

 42 44  0  0  0  0  0  0  0  0999 V2000
   -3.0000   -7.7942    0.0000 C   0  0  0  0  0  0  0  0  0  0  0  0
   -1.5000   -7.7942    0.0000 O   0  0  0  0  0  0  0  0  0  0  0  0
   -0.7500   -6.4952    0.0000 C   0  0  0  0  0  0  0  0  0  0  0  0
   -1.5000   -5.1962    0.0000 C   0  0  0  0  0  0  0  0  0  0  0  0
   -3.0000   -5.1962    0.0000 C   0  0  0  0  0  0  0  0  0  0  0  0
   -0.7500   -3.8971    0.0000 O   0  0  0  0  0  0  0  0  0  0  0  0
    0.7500   -3.8971    0.0000 C   0  0  0  0  0  0  0  0  0  0  0  0
    1.5000   -2.5981    0.0000 O   0  0  0  0  0  0  0  0  0  0  0  0
    0.7500   -1.2990    0.0000 C   0  0  0  0  0  0  0  0  0  0  0  0
    1.5000    0.0000    0.0000 C   0  0  0  0  0  0  0  0  0  0  0  0
    0.7500    1.2990    0.0000 C   0  0  0  0  0  0  0  0  0  0  0  0
   -0.7500    1.2990    0.0000 O   0  0  0  0  0  0  0  0  0  0  0  0
   -1.5000    0.0000    0.0000 C   0  0  0  0  0  0  0  0  0  0  0  0
   -2.4549    0.2381    0.0000 O   0  0  0  0  0  0  0  0  0  0  0  0
   -0.7500   -1.2990    0.0000 C   0  0  0  0  0  0  0  0  0  0  0  0
   -3.2662    0.0602    0.0000 C   0  0  0  0  0  0  0  0  0  0  0  0
   -3.8142   -1.3361    0.0000 C   0  0  0  0  0  0  0  0  0  0  0  0
   -4.5055    0.9052    0.0000 C   0  0  0  0  0  0  0  0  0  0  0  0
   -5.6051   -0.1151    0.0000 O   0  0  0  0  0  0  0  0  0  0  0  0
   -5.2555    2.2042    0.0000 O   0  0  0  0  0  0  0  0  0  0  0  0
   -5.3676    3.7000    0.0000 C   0  0  0  0  0  0  0  0  0  0  0  0
   -6.8509    3.9236    0.0000 C   0  0  0  0  0  0  0  0  0  0  0  0
   -7.7861    2.7508    0.0000 C   0  0  0  0  0  0  0  0  0  0  0  0
   -9.2694    2.9744    0.0000 C   0  0  0  0  0  0  0  0  0  0  0  0
  -10.2046    1.8017    0.0000 C   0  0  0  0  0  0  0  0  0  0  0  0
  -11.6878    2.0252    0.0000 Br  0  0  0  0  0  0  0  0  0  0  0  0
   -4.8196    5.0963    0.0000 C   0  0  0  0  0  0  0  0  0  0  0  0
   -3.7200    6.1166    0.0000 C   0  0  0  0  0  0  0  0  0  0  0  0
   -4.4700    7.4156    0.0000 C   0  0  0  0  0  0  0  0  0  0  0  0
   -2.2867    6.5587    0.0000 C   0  0  0  0  0  0  0  0  0  0  0  0
   -0.8034    6.3352    0.0000 C   0  0  0  0  0  0  0  0  0  0  0  0
    0.4359    5.4902    0.0000 C   0  0  0  0  0  0  0  0  0  0  0  0
    1.1859    4.1912    0.0000 C   0  0  0  0  0  0  0  0  0  0  0  0
    2.6193    4.6333    0.0000 O   0  0  0  0  0  0  0  0  0  0  0  0
    1.2980    2.6953    0.0000 C   0  0  0  0  0  0  0  0  0  0  0  0
    2.7813    2.4718    0.0000 C   0  0  0  0  0  0  0  0  0  0  0  0
    1.5000   -5.1962    0.0000 C   0  0  0  0  0  0  0  0  0  0  0  0
    3.0000   -5.1962    0.0000 O   0  0  0  0  0  0  0  0  0  0  0  0
    3.7500   -6.4952    0.0000 C   0  0  0  0  0  0  0  0  0  0  0  0
    0.7500   -6.4952    0.0000 C   0  0  0  0  0  0  0  0  0  0  0  0
    1.5000   -7.7942    0.0000 O   0  0  0  0  0  0  0  0  0  0  0  0
    0.7500   -9.0933    0.0000 C   0  0  0  0  0  0  0  0  0  0  0  0
  1  2  1  0
  2  3  1  0
  3  4  1  0
  4  5  1  0
  4  6  1  0
  6  7  1  0
  7  8  1  0
  8  9  1  0
  9 10  1  0
 10 11  1  0
 11 12  1  0
 12 13  1  0
 13 14  1  0
 13 15  1  0
 13 16  1  0
 16 17  1  0
 16 18  1  0
 18 19  2  0
 18 20  1  0
 20 21  1  0
 21 22  1  0
 22 23  2  0
 23 24  1  0
 24 25  2  0
 25 26  1  0
 21 27  1  0
 27 28  1  0
 28 29  1  0
 28 30  1  0
 30 31  1  0
 31 32  2  0
 32 33  1  0
 33 34  1  0
 33 35  1  0
 35 36  1  0
  7 37  1  0
 37 38  1  0
 38 39  1  0
 37 40  1  0
 40 41  1  0
 41 42  1  0
 40  3  1  0
 15  9  1  0
 35 11  1  0
M  END
>  <ChEMBL_IDs>  (158) 
nan

>  <target_organism>  (158) 
nan

>  <target_molecule_pref_name>  (158) 
nan

>  <# Known Targets>  (158) 
nan

>  <Known Targets>  (158) 
nan

>  <smiles>  (158) 
COC1C(C)OC(OC2CC3OC(O)(C2)C(C)C(=O)OC(/C=C/C=C/Br)CC(C)C/C=C\C(O)C3C)C(OC)C1OC

$$$$

     RDKit          2D

 42 44  0  0  0  0  0  0  0  0999 V2000
   -3.0000   -7.7942    0.0000 C   0  0  0  0  0  0  0  0  0  0  0  0
   -1.5000   -7.7942    0.0000 O   0  0  0  0  0  0  0  0  0  0  0  0
   -0.7500   -6.4952    0.0000 C   0  0  0  0  0  0  0  0  0  0  0  0
   -1.5000   -5.1962    0.0000 C   0  0  0  0  0  0  0  0  0  0  0  0
   -3.0000   -5.1962    0.0000 C   0  0  0  0  0  0  0  0  0  0  0  0
   -0.7500   -3.8971    0.0000 O   0  0  0  0  0  0  0  0  0  0  0  0
    0.7500   -3.8971    0.0000 C   0  0  0  0  0  0  0  0  0  0  0  0
    1.5000   -2.5981    0.0000 O   0  0  0  0  0  0  0  0  0  0  0  0
    0.7500   -1.2990    0.0000 C   0  0  0  0  0  0  0  0  0  0  0  0
    1.5000    0.0000    0.0000 C   0  0  0  0  0  0  0  0  0  0  0  0
    0.7500    1.2990    0.0000 C   0  0  0  0  0  0  0  0  0  0  0  0
   -0.7500    1.2990    0.0000 O   0  0  0  0  0  0  0  0  0  0  0  0
   -1.5000    0.0000    0.0000 C   0  0  0  0  0  0  0  0  0  0  0  0
   -2.4549    0.2381    0.0000 O   0  0  0  0  0  0  0  0  0  0  0  0
   -0.7500   -1.2990    0.0000 C   0  0  0  0  0  0  0  0  0  0  0  0
   -3.2662    0.0602    0.0000 C   0  0  0  0  0  0  0  0  0  0  0  0
   -3.8142   -1.3361    0.0000 C   0  0  0  0  0  0  0  0  0  0  0  0
   -4.5055    0.9052    0.0000 C   0  0  0  0  0  0  0  0  0  0  0  0
   -5.6051   -0.1151    0.0000 O   0  0  0  0  0  0  0  0  0  0  0  0
   -5.2555    2.2042    0.0000 O   0  0  0  0  0  0  0  0  0  0  0  0
   -5.3676    3.7000    0.0000 C   0  0  0  0  0  0  0  0  0  0  0  0
   -6.8509    3.9236    0.0000 C   0  0  0  0  0  0  0  0  0  0  0  0
   -7.7861    2.7508    0.0000 C   0  0  0  0  0  0  0  0  0  0  0  0
   -9.2694    2.9744    0.0000 C   0  0  0  0  0  0  0  0  0  0  0  0
  -10.2046    1.8017    0.0000 C   0  0  0  0  0  0  0  0  0  0  0  0
  -11.6878    2.0252    0.0000 Br  0  0  0  0  0  0  0  0  0  0  0  0
   -4.8196    5.0963    0.0000 C   0  0  0  0  0  0  0  0  0  0  0  0
   -3.7200    6.1166    0.0000 C   0  0  0  0  0  0  0  0  0  0  0  0
   -4.4700    7.4156    0.0000 C   0  0  0  0  0  0  0  0  0  0  0  0
   -2.2867    6.5587    0.0000 C   0  0  0  0  0  0  0  0  0  0  0  0
   -0.8034    6.3352    0.0000 C   0  0  0  0  0  0  0  0  0  0  0  0
    0.4359    5.4902    0.0000 C   0  0  0  0  0  0  0  0  0  0  0  0
    1.1859    4.1912    0.0000 C   0  0  0  0  0  0  0  0  0  0  0  0
    2.6193    4.6333    0.0000 O   0  0  0  0  0  0  0  0  0  0  0  0
    1.2980    2.6953    0.0000 C   0  0  0  0  0  0  0  0  0  0  0  0
    2.7813    2.4718    0.0000 C   0  0  0  0  0  0  0  0  0  0  0  0
    1.5000   -5.1962    0.0000 C   0  0  0  0  0  0  0  0  0  0  0  0
    3.0000   -5.1962    0.0000 O   0  0  0  0  0  0  0  0  0  0  0  0
    3.7500   -6.4952    0.0000 C   0  0  0  0  0  0  0  0  0  0  0  0
    0.7500   -6.4952    0.0000 C   0  0  0  0  0  0  0  0  0  0  0  0
    1.5000   -7.7942    0.0000 O   0  0  0  0  0  0  0  0  0  0  0  0
    0.7500   -9.0933    0.0000 C   0  0  0  0  0  0  0  0  0  0  0  0
  1  2  1  0
  2  3  1  0
  3  4  1  0
  4  5  1  0
  4  6  1  0
  6  7  1  0
  7  8  1  0
  8  9  1  0
  9 10  1  0
 10 11  1  0
 11 12  1  0
 12 13  1  0
 13 14  1  0
 13 15  1  0
 13 16  1  0
 16 17  1  0
 16 18  1  0
 18 19  2  0
 18 20  1  0
 20 21  1  0
 21 22  1  0
 22 23  2  0
 23 24  1  0
 24 25  2  0
 25 26  1  0
 21 27  1  0
 27 28  1  0
 28 29  1  0
 28 30  1  0
 30 31  1  0
 31 32  2  0
 32 33  1  0
 33 34  1  0
 33 35  1  0
 35 36  1  0
  7 37  1  0
 37 38  1  0
 38 39  1  0
 37 40  1  0
 40 41  1  0
 41 42  1  0
 40  3  1  0
 15  9  1  0
 35 11  1  0
M  END
>  <ChEMBL_IDs>  (159) 
nan

>  <target_organism>  (159) 
nan

>  <target_molecule_pref_name>  (159) 
nan

>  <# Known Targets>  (159) 
nan

>  <Known Targets>  (159) 
nan

>  <smiles>  (159) 
COC1C(C)OC(OC2CC3OC(O)(C2)C(C)C(=O)OC(/C=C/C=C/Br)CC(C)C/C=C\C(O)C3C)C(OC)C1OC

$$$$

     RDKit          2D

 42 44  0  0  0  0  0  0  0  0999 V2000
   -3.0000   -7.7942    0.0000 C   0  0  0  0  0  0  0  0  0  0  0  0
   -1.5000   -7.7942    0.0000 O   0  0  0  0  0  0  0  0  0  0  0  0
   -0.7500   -6.4952    0.0000 C   0  0  0  0  0  0  0  0  0  0  0  0
   -1.5000   -5.1962    0.0000 C   0  0  0  0  0  0  0  0  0  0  0  0
   -3.0000   -5.1962    0.0000 C   0  0  0  0  0  0  0  0  0  0  0  0
   -0.7500   -3.8971    0.0000 O   0  0  0  0  0  0  0  0  0  0  0  0
    0.7500   -3.8971    0.0000 C   0  0  0  0  0  0  0  0  0  0  0  0
    1.5000   -2.5981    0.0000 O   0  0  0  0  0  0  0  0  0  0  0  0
    0.7500   -1.2990    0.0000 C   0  0  0  0  0  0  0  0  0  0  0  0
    1.5000    0.0000    0.0000 C   0  0  0  0  0  0  0  0  0  0  0  0
    0.7500    1.2990    0.0000 C   0  0  0  0  0  0  0  0  0  0  0  0
   -0.7500    1.2990    0.0000 O   0  0  0  0  0  0  0  0  0  0  0  0
   -1.5000    0.0000    0.0000 C   0  0  0  0  0  0  0  0  0  0  0  0
   -2.4549    0.2381    0.0000 O   0  0  0  0  0  0  0  0  0  0  0  0
   -0.7500   -1.2990    0.0000 C   0  0  0  0  0  0  0  0  0  0  0  0
   -3.2662    0.0602    0.0000 C   0  0  0  0  0  0  0  0  0  0  0  0
   -3.8142   -1.3361    0.0000 C   0  0  0  0  0  0  0  0  0  0  0  0
   -4.5055    0.9052    0.0000 C   0  0  0  0  0  0  0  0  0  0  0  0
   -5.6051   -0.1151    0.0000 O   0  0  0  0  0  0  0  0  0  0  0  0
   -5.2555    2.2042    0.0000 O   0  0  0  0  0  0  0  0  0  0  0  0
   -5.3676    3.7000    0.0000 C   0  0  0  0  0  0  0  0  0  0  0  0
   -6.8509    3.9236    0.0000 C   0  0  0  0  0  0  0  0  0  0  0  0
   -7.7861    2.7508    0.0000 C   0  0  0  0  0  0  0  0  0  0  0  0
   -9.2694    2.9744    0.0000 C   0  0  0  0  0  0  0  0  0  0  0  0
  -10.2046    1.8017    0.0000 C   0  0  0  0  0  0  0  0  0  0  0  0
   -9.6566    0.4054    0.0000 Br  0  0  0  0  0  0  0  0  0  0  0  0
   -4.8196    5.0963    0.0000 C   0  0  0  0  0  0  0  0  0  0  0  0
   -3.7200    6.1166    0.0000 C   0  0  0  0  0  0  0  0  0  0  0  0
   -4.4700    7.4156    0.0000 C   0  0  0  0  0  0  0  0  0  0  0  0
   -2.2867    6.5587    0.0000 C   0  0  0  0  0  0  0  0  0  0  0  0
   -0.8034    6.3352    0.0000 C   0  0  0  0  0  0  0  0  0  0  0  0
    0.4359    5.4902    0.0000 C   0  0  0  0  0  0  0  0  0  0  0  0
    1.1859    4.1912    0.0000 C   0  0  0  0  0  0  0  0  0  0  0  0
    2.6193    4.6333    0.0000 O   0  0  0  0  0  0  0  0  0  0  0  0
    1.2980    2.6953    0.0000 C   0  0  0  0  0  0  0  0  0  0  0  0
    2.7813    2.4718    0.0000 C   0  0  0  0  0  0  0  0  0  0  0  0
    1.5000   -5.1962    0.0000 C   0  0  0  0  0  0  0  0  0  0  0  0
    3.0000   -5.1962    0.0000 O   0  0  0  0  0  0  0  0  0  0  0  0
    3.7500   -6.4952    0.0000 C   0  0  0  0  0  0  0  0  0  0  0  0
    0.7500   -6.4952    0.0000 C   0  0  0  0  0  0  0  0  0  0  0  0
    1.5000   -7.7942    0.0000 O   0  0  0  0  0  0  0  0  0  0  0  0
    0.7500   -9.0933    0.0000 C   0  0  0  0  0  0  0  0  0  0  0  0
  1  2  1  0
  2  3  1  0
  3  4  1  0
  4  5  1  0
  4  6  1  0
  6  7  1  0
  7  8  1  0
  8  9  1  0
  9 10  1  0
 10 11  1  0
 11 12  1  0
 12 13  1  0
 13 14  1  0
 13 15  1  0
 13 16  1  0
 16 17  1  0
 16 18  1  0
 18 19  2  0
 18 20  1  0
 20 21  1  0
 21 22  1  0
 22 23  2  0
 23 24  1  0
 24 25  2  0
 25 26  1  0
 21 27  1  0
 27 28  1  0
 28 29  1  0
 28 30  1  0
 30 31  1  0
 31 32  2  0
 32 33  1  0
 33 34  1  0
 33 35  1  0
 35 36  1  0
  7 37  1  0
 37 38  1  0
 38 39  1  0
 37 40  1  0
 40 41  1  0
 41 42  1  0
 40  3  1  0
 15  9  1  0
 35 11  1  0
M  END
>  <ChEMBL_IDs>  (160) 
nan

>  <target_organism>  (160) 
nan

>  <target_molecule_pref_name>  (160) 
nan

>  <# Known Targets>  (160) 
nan

>  <Known Targets>  (160) 
nan

>  <smiles>  (160) 
COC1C(C)OC(OC2CC3OC(O)(C2)C(C)C(=O)OC(/C=C/C=C\Br)CC(C)C/C=C\C(O)C3C)C(OC)C1OC

$$$$

     RDKit          2D

 42 44  0  0  0  0  0  0  0  0999 V2000
   -3.0000   -7.7942    0.0000 C   0  0  0  0  0  0  0  0  0  0  0  0
   -1.5000   -7.7942    0.0000 O   0  0  0  0  0  0  0  0  0  0  0  0
   -0.7500   -6.4952    0.0000 C   0  0  0  0  0  0  0  0  0  0  0  0
   -1.5000   -5.1962    0.0000 C   0  0  0  0  0  0  0  0  0  0  0  0
   -3.0000   -5.1962    0.0000 C   0  0  0  0  0  0  0  0  0  0  0  0
   -0.7500   -3.8971    0.0000 O   0  0  0  0  0  0  0  0  0  0  0  0
    0.7500   -3.8971    0.0000 C   0  0  0  0  0  0  0  0  0  0  0  0
    1.5000   -2.5981    0.0000 O   0  0  0  0  0  0  0  0  0  0  0  0
    0.7500   -1.2990    0.0000 C   0  0  0  0  0  0  0  0  0  0  0  0
    1.5000    0.0000    0.0000 C   0  0  0  0  0  0  0  0  0  0  0  0
    0.7500    1.2990    0.0000 C   0  0  0  0  0  0  0  0  0  0  0  0
   -0.7500    1.2990    0.0000 O   0  0  0  0  0  0  0  0  0  0  0  0
   -1.5000    0.0000    0.0000 C   0  0  0  0  0  0  0  0  0  0  0  0
   -2.4549    0.2381    0.0000 O   0  0  0  0  0  0  0  0  0  0  0  0
   -0.7500   -1.2990    0.0000 C   0  0  0  0  0  0  0  0  0  0  0  0
   -3.2662    0.0602    0.0000 C   0  0  0  0  0  0  0  0  0  0  0  0
   -3.8142   -1.3361    0.0000 C   0  0  0  0  0  0  0  0  0  0  0  0
   -4.5055    0.9052    0.0000 C   0  0  0  0  0  0  0  0  0  0  0  0
   -5.6051   -0.1151    0.0000 O   0  0  0  0  0  0  0  0  0  0  0  0
   -5.2555    2.2042    0.0000 O   0  0  0  0  0  0  0  0  0  0  0  0
   -5.3676    3.7000    0.0000 C   0  0  0  0  0  0  0  0  0  0  0  0
   -6.8509    3.9236    0.0000 C   0  0  0  0  0  0  0  0  0  0  0  0
   -7.7861    2.7508    0.0000 C   0  0  0  0  0  0  0  0  0  0  0  0
   -9.2694    2.9744    0.0000 C   0  0  0  0  0  0  0  0  0  0  0  0
  -10.2046    1.8017    0.0000 C   0  0  0  0  0  0  0  0  0  0  0  0
   -9.6566    0.4054    0.0000 Br  0  0  0  0  0  0  0  0  0  0  0  0
   -4.8196    5.0963    0.0000 C   0  0  0  0  0  0  0  0  0  0  0  0
   -3.7200    6.1166    0.0000 C   0  0  0  0  0  0  0  0  0  0  0  0
   -4.4700    7.4156    0.0000 C   0  0  0  0  0  0  0  0  0  0  0  0
   -2.2867    6.5587    0.0000 C   0  0  0  0  0  0  0  0  0  0  0  0
   -0.8034    6.3352    0.0000 C   0  0  0  0  0  0  0  0  0  0  0  0
    0.4359    5.4902    0.0000 C   0  0  0  0  0  0  0  0  0  0  0  0
    1.1859    4.1912    0.0000 C   0  0  0  0  0  0  0  0  0  0  0  0
    2.6193    4.6333    0.0000 O   0  0  0  0  0  0  0  0  0  0  0  0
    1.2980    2.6953    0.0000 C   0  0  0  0  0  0  0  0  0  0  0  0
    2.7813    2.4718    0.0000 C   0  0  0  0  0  0  0  0  0  0  0  0
    1.5000   -5.1962    0.0000 C   0  0  0  0  0  0  0  0  0  0  0  0
    3.0000   -5.1962    0.0000 O   0  0  0  0  0  0  0  0  0  0  0  0
    3.7500   -6.4952    0.0000 C   0  0  0  0  0  0  0  0  0  0  0  0
    0.7500   -6.4952    0.0000 C   0  0  0  0  0  0  0  0  0  0  0  0
    1.5000   -7.7942    0.0000 O   0  0  0  0  0  0  0  0  0  0  0  0
    0.7500   -9.0933    0.0000 C   0  0  0  0  0  0  0  0  0  0  0  0
  1  2  1  0
  2  3  1  0
  3  4  1  0
  4  5  1  0
  4  6  1  0
  6  7  1  0
  7  8  1  0
  8  9  1  0
  9 10  1  0
 10 11  1  0
 11 12  1  0
 12 13  1  0
 13 14  1  0
 13 15  1  0
 13 16  1  0
 16 17  1  0
 16 18  1  0
 18 19  2  0
 18 20  1  0
 20 21  1  0
 21 22  1  0
 22 23  2  0
 23 24  1  0
 24 25  2  0
 25 26  1  0
 21 27  1  0
 27 28  1  0
 28 29  1  0
 28 30  1  0
 30 31  1  0
 31 32  2  0
 32 33  1  0
 33 34  1  0
 33 35  1  0
 35 36  1  0
  7 37  1  0
 37 38  1  0
 38 39  1  0
 37 40  1  0
 40 41  1  0
 41 42  1  0
 40  3  1  0
 15  9  1  0
 35 11  1  0
M  END
>  <ChEMBL_IDs>  (161) 
nan

>  <target_organism>  (161) 
nan

>  <target_molecule_pref_name>  (161) 
nan

>  <# Known Targets>  (161) 
nan

>  <Known Targets>  (161) 
nan

>  <smiles>  (161) 
COC1C(C)OC(OC2CC3OC(O)(C2)C(C)C(=O)OC(/C=C/C=C\Br)CC(C)C/C=C\C(O)C3C)C(OC)C1OC

$$$$

     RDKit          2D

 42 44  0  0  0  0  0  0  0  0999 V2000
   -3.0000   -7.7942    0.0000 C   0  0  0  0  0  0  0  0  0  0  0  0
   -1.5000   -7.7942    0.0000 O   0  0  0  0  0  0  0  0  0  0  0  0
   -0.7500   -6.4952    0.0000 C   0  0  0  0  0  0  0  0  0  0  0  0
   -1.5000   -5.1962    0.0000 C   0  0  0  0  0  0  0  0  0  0  0  0
   -3.0000   -5.1962    0.0000 C   0  0  0  0  0  0  0  0  0  0  0  0
   -0.7500   -3.8971    0.0000 O   0  0  0  0  0  0  0  0  0  0  0  0
    0.7500   -3.8971    0.0000 C   0  0  0  0  0  0  0  0  0  0  0  0
    1.5000   -2.5981    0.0000 O   0  0  0  0  0  0  0  0  0  0  0  0
    0.7500   -1.2990    0.0000 C   0  0  0  0  0  0  0  0  0  0  0  0
    1.5000    0.0000    0.0000 C   0  0  0  0  0  0  0  0  0  0  0  0
    0.7500    1.2990    0.0000 C   0  0  0  0  0  0  0  0  0  0  0  0
   -0.7500    1.2990    0.0000 O   0  0  0  0  0  0  0  0  0  0  0  0
   -1.5000    0.0000    0.0000 C   0  0  0  0  0  0  0  0  0  0  0  0
   -2.4549    0.2381    0.0000 O   0  0  0  0  0  0  0  0  0  0  0  0
   -0.7500   -1.2990    0.0000 C   0  0  0  0  0  0  0  0  0  0  0  0
   -3.2662    0.0602    0.0000 C   0  0  0  0  0  0  0  0  0  0  0  0
   -3.8142   -1.3361    0.0000 C   0  0  0  0  0  0  0  0  0  0  0  0
   -4.5055    0.9052    0.0000 C   0  0  0  0  0  0  0  0  0  0  0  0
   -5.6051   -0.1151    0.0000 O   0  0  0  0  0  0  0  0  0  0  0  0
   -5.2555    2.2042    0.0000 O   0  0  0  0  0  0  0  0  0  0  0  0
   -5.3676    3.7000    0.0000 C   0  0  0  0  0  0  0  0  0  0  0  0
   -6.8509    3.9236    0.0000 C   0  0  0  0  0  0  0  0  0  0  0  0
   -7.7861    2.7508    0.0000 C   0  0  0  0  0  0  0  0  0  0  0  0
   -7.2381    1.3545    0.0000 C   0  0  0  0  0  0  0  0  0  0  0  0
   -8.1733    0.1818    0.0000 C   0  0  0  0  0  0  0  0  0  0  0  0
   -7.6253   -1.2145    0.0000 Br  0  0  0  0  0  0  0  0  0  0  0  0
   -4.8196    5.0963    0.0000 C   0  0  0  0  0  0  0  0  0  0  0  0
   -3.7200    6.1166    0.0000 C   0  0  0  0  0  0  0  0  0  0  0  0
   -4.4700    7.4156    0.0000 C   0  0  0  0  0  0  0  0  0  0  0  0
   -2.2867    6.5587    0.0000 C   0  0  0  0  0  0  0  0  0  0  0  0
   -0.8034    6.3352    0.0000 C   0  0  0  0  0  0  0  0  0  0  0  0
    0.4359    5.4902    0.0000 C   0  0  0  0  0  0  0  0  0  0  0  0
    1.1859    4.1912    0.0000 C   0  0  0  0  0  0  0  0  0  0  0  0
    2.6193    4.6333    0.0000 O   0  0  0  0  0  0  0  0  0  0  0  0
    1.2980    2.6953    0.0000 C   0  0  0  0  0  0  0  0  0  0  0  0
    2.7813    2.4718    0.0000 C   0  0  0  0  0  0  0  0  0  0  0  0
    1.5000   -5.1962    0.0000 C   0  0  0  0  0  0  0  0  0  0  0  0
    3.0000   -5.1962    0.0000 O   0  0  0  0  0  0  0  0  0  0  0  0
    3.7500   -6.4952    0.0000 C   0  0  0  0  0  0  0  0  0  0  0  0
    0.7500   -6.4952    0.0000 C   0  0  0  0  0  0  0  0  0  0  0  0
    1.5000   -7.7942    0.0000 O   0  0  0  0  0  0  0  0  0  0  0  0
    0.7500   -9.0933    0.0000 C   0  0  0  0  0  0  0  0  0  0  0  0
  1  2  1  0
  2  3  1  0
  3  4  1  0
  4  5  1  0
  4  6  1  0
  6  7  1  0
  7  8  1  0
  8  9  1  0
  9 10  1  0
 10 11  1  0
 11 12  1  0
 12 13  1  0
 13 14  1  0
 13 15  1  0
 13 16  1  0
 16 17  1  0
 16 18  1  0
 18 19  2  0
 18 20  1  0
 20 21  1  0
 21 22  1  0
 22 23  2  0
 23 24  1  0
 24 25  2  0
 25 26  1  0
 21 27  1  0
 27 28  1  0
 28 29  1  0
 28 30  1  0
 30 31  1  0
 31 32  2  0
 32 33  1  0
 33 34  1  0
 33 35  1  0
 35 36  1  0
  7 37  1  0
 37 38  1  0
 38 39  1  0
 37 40  1  0
 40 41  1  0
 41 42  1  0
 40  3  1  0
 15  9  1  0
 35 11  1  0
M  END
>  <ChEMBL_IDs>  (162) 
nan

>  <target_organism>  (162) 
nan

>  <target_molecule_pref_name>  (162) 
nan

>  <# Known Targets>  (162) 
nan

>  <Known Targets>  (162) 
nan

>  <smiles>  (162) 
COC1C(C)OC(OC2CC3OC(O)(C2)C(C)C(=O)OC(/C=C\C=C\Br)CC(C)C/C=C\C(O)C3C)C(OC)C1OC

$$$$

     RDKit          2D

 42 44  0  0  0  0  0  0  0  0999 V2000
   -3.0000   -7.7942    0.0000 C   0  0  0  0  0  0  0  0  0  0  0  0
   -1.5000   -7.7942    0.0000 O   0  0  0  0  0  0  0  0  0  0  0  0
   -0.7500   -6.4952    0.0000 C   0  0  0  0  0  0  0  0  0  0  0  0
   -1.5000   -5.1962    0.0000 C   0  0  0  0  0  0  0  0  0  0  0  0
   -3.0000   -5.1962    0.0000 C   0  0  0  0  0  0  0  0  0  0  0  0
   -0.7500   -3.8971    0.0000 O   0  0  0  0  0  0  0  0  0  0  0  0
    0.7500   -3.8971    0.0000 C   0  0  0  0  0  0  0  0  0  0  0  0
    1.5000   -2.5981    0.0000 O   0  0  0  0  0  0  0  0  0  0  0  0
    0.7500   -1.2990    0.0000 C   0  0  0  0  0  0  0  0  0  0  0  0
    1.5000    0.0000    0.0000 C   0  0  0  0  0  0  0  0  0  0  0  0
    0.7500    1.2990    0.0000 C   0  0  0  0  0  0  0  0  0  0  0  0
   -0.7500    1.2990    0.0000 O   0  0  0  0  0  0  0  0  0  0  0  0
   -1.5000    0.0000    0.0000 C   0  0  0  0  0  0  0  0  0  0  0  0
   -2.4549    0.2381    0.0000 O   0  0  0  0  0  0  0  0  0  0  0  0
   -0.7500   -1.2990    0.0000 C   0  0  0  0  0  0  0  0  0  0  0  0
   -3.2662    0.0602    0.0000 C   0  0  0  0  0  0  0  0  0  0  0  0
   -3.8142   -1.3361    0.0000 C   0  0  0  0  0  0  0  0  0  0  0  0
   -4.5055    0.9052    0.0000 C   0  0  0  0  0  0  0  0  0  0  0  0
   -5.6051   -0.1151    0.0000 O   0  0  0  0  0  0  0  0  0  0  0  0
   -5.2555    2.2042    0.0000 O   0  0  0  0  0  0  0  0  0  0  0  0
   -5.3676    3.7000    0.0000 C   0  0  0  0  0  0  0  0  0  0  0  0
   -6.8509    3.9236    0.0000 C   0  0  0  0  0  0  0  0  0  0  0  0
   -7.7861    2.7508    0.0000 C   0  0  0  0  0  0  0  0  0  0  0  0
   -9.2694    2.9744    0.0000 C   0  0  0  0  0  0  0  0  0  0  0  0
  -10.2046    1.8017    0.0000 C   0  0  0  0  0  0  0  0  0  0  0  0
  -11.6878    2.0252    0.0000 Br  0  0  0  0  0  0  0  0  0  0  0  0
   -4.8196    5.0963    0.0000 C   0  0  0  0  0  0  0  0  0  0  0  0
   -3.7200    6.1166    0.0000 C   0  0  0  0  0  0  0  0  0  0  0  0
   -4.4700    7.4156    0.0000 C   0  0  0  0  0  0  0  0  0  0  0  0
   -2.2867    6.5587    0.0000 C   0  0  0  0  0  0  0  0  0  0  0  0
   -0.8034    6.3352    0.0000 C   0  0  0  0  0  0  0  0  0  0  0  0
    0.4359    5.4902    0.0000 C   0  0  0  0  0  0  0  0  0  0  0  0
    1.1859    4.1912    0.0000 C   0  0  0  0  0  0  0  0  0  0  0  0
    2.6193    4.6333    0.0000 O   0  0  0  0  0  0  0  0  0  0  0  0
    1.2980    2.6953    0.0000 C   0  0  0  0  0  0  0  0  0  0  0  0
    2.7813    2.4718    0.0000 C   0  0  0  0  0  0  0  0  0  0  0  0
    1.5000   -5.1962    0.0000 C   0  0  0  0  0  0  0  0  0  0  0  0
    3.0000   -5.1962    0.0000 O   0  0  0  0  0  0  0  0  0  0  0  0
    3.7500   -6.4952    0.0000 C   0  0  0  0  0  0  0  0  0  0  0  0
    0.7500   -6.4952    0.0000 C   0  0  0  0  0  0  0  0  0  0  0  0
    1.5000   -7.7942    0.0000 O   0  0  0  0  0  0  0  0  0  0  0  0
    0.7500   -9.0933    0.0000 C   0  0  0  0  0  0  0  0  0  0  0  0
  1  2  1  0
  2  3  1  0
  3  4  1  0
  4  5  1  0
  4  6  1  0
  6  7  1  0
  7  8  1  0
  8  9  1  0
  9 10  1  0
 10 11  1  0
 11 12  1  0
 12 13  1  0
 13 14  1  0
 13 15  1  0
 13 16  1  0
 16 17  1  0
 16 18  1  0
 18 19  2  0
 18 20  1  0
 20 21  1  0
 21 22  1  0
 22 23  2  0
 23 24  1  0
 24 25  2  0
 25 26  1  0
 21 27  1  0
 27 28  1  0
 28 29  1  0
 28 30  1  0
 30 31  2  0
 31 32  1  0
 32 33  1  0
 33 34  1  0
 33 35  1  0
 35 36  1  0
  7 37  1  0
 37 38  1  0
 38 39  1  0
 37 40  1  0
 40 41  1  0
 41 42  1  0
 40  3  1  0
 15  9  1  0
 35 11  1  0
M  END
>  <ChEMBL_IDs>  (163) 
nan

>  <target_organism>  (163) 
nan

>  <target_molecule_pref_name>  (163) 
nan

>  <# Known Targets>  (163) 
nan

>  <Known Targets>  (163) 
nan

>  <smiles>  (163) 
COC1C(C)OC(OC2CC3OC(O)(C2)C(C)C(=O)OC(/C=C/C=C/Br)CC(C)/C=C\CC(O)C3C)C(OC)C1OC

$$$$

     RDKit          2D

 42 44  0  0  0  0  0  0  0  0999 V2000
   -3.0000   -7.7942    0.0000 C   0  0  0  0  0  0  0  0  0  0  0  0
   -1.5000   -7.7942    0.0000 O   0  0  0  0  0  0  0  0  0  0  0  0
   -0.7500   -6.4952    0.0000 C   0  0  0  0  0  0  0  0  0  0  0  0
   -1.5000   -5.1962    0.0000 C   0  0  0  0  0  0  0  0  0  0  0  0
   -3.0000   -5.1962    0.0000 C   0  0  0  0  0  0  0  0  0  0  0  0
   -0.7500   -3.8971    0.0000 O   0  0  0  0  0  0  0  0  0  0  0  0
    0.7500   -3.8971    0.0000 C   0  0  0  0  0  0  0  0  0  0  0  0
    1.5000   -2.5981    0.0000 O   0  0  0  0  0  0  0  0  0  0  0  0
    0.7500   -1.2990    0.0000 C   0  0  0  0  0  0  0  0  0  0  0  0
    1.5000    0.0000    0.0000 C   0  0  0  0  0  0  0  0  0  0  0  0
    0.7500    1.2990    0.0000 C   0  0  0  0  0  0  0  0  0  0  0  0
   -0.7500    1.2990    0.0000 O   0  0  0  0  0  0  0  0  0  0  0  0
   -1.5000    0.0000    0.0000 C   0  0  0  0  0  0  0  0  0  0  0  0
   -2.4549    0.2381    0.0000 O   0  0  0  0  0  0  0  0  0  0  0  0
   -0.7500   -1.2990    0.0000 C   0  0  0  0  0  0  0  0  0  0  0  0
   -3.2662    0.0602    0.0000 C   0  0  0  0  0  0  0  0  0  0  0  0
   -3.8142   -1.3361    0.0000 C   0  0  0  0  0  0  0  0  0  0  0  0
   -4.5055    0.9052    0.0000 C   0  0  0  0  0  0  0  0  0  0  0  0
   -5.6051   -0.1151    0.0000 O   0  0  0  0  0  0  0  0  0  0  0  0
   -5.2555    2.2042    0.0000 O   0  0  0  0  0  0  0  0  0  0  0  0
   -5.3676    3.7000    0.0000 C   0  0  0  0  0  0  0  0  0  0  0  0
   -6.8509    3.9236    0.0000 C   0  0  0  0  0  0  0  0  0  0  0  0
   -7.7861    2.7508    0.0000 C   0  0  0  0  0  0  0  0  0  0  0  0
   -9.2694    2.9744    0.0000 C   0  0  0  0  0  0  0  0  0  0  0  0
  -10.2046    1.8017    0.0000 C   0  0  0  0  0  0  0  0  0  0  0  0
  -11.6878    2.0252    0.0000 Br  0  0  0  0  0  0  0  0  0  0  0  0
   -4.8196    5.0963    0.0000 C   0  0  0  0  0  0  0  0  0  0  0  0
   -3.7200    6.1166    0.0000 C   0  0  0  0  0  0  0  0  0  0  0  0
   -4.4700    7.4156    0.0000 C   0  0  0  0  0  0  0  0  0  0  0  0
   -2.2867    6.5587    0.0000 C   0  0  0  0  0  0  0  0  0  0  0  0
   -0.8034    6.3352    0.0000 C   0  0  0  0  0  0  0  0  0  0  0  0
    0.4359    5.4902    0.0000 C   0  0  0  0  0  0  0  0  0  0  0  0
    1.1859    4.1912    0.0000 C   0  0  0  0  0  0  0  0  0  0  0  0
    2.6193    4.6333    0.0000 O   0  0  0  0  0  0  0  0  0  0  0  0
    1.2980    2.6953    0.0000 C   0  0  0  0  0  0  0  0  0  0  0  0
    2.7813    2.4718    0.0000 C   0  0  0  0  0  0  0  0  0  0  0  0
    1.5000   -5.1962    0.0000 C   0  0  0  0  0  0  0  0  0  0  0  0
    3.0000   -5.1962    0.0000 O   0  0  0  0  0  0  0  0  0  0  0  0
    3.7500   -6.4952    0.0000 C   0  0  0  0  0  0  0  0  0  0  0  0
    0.7500   -6.4952    0.0000 C   0  0  0  0  0  0  0  0  0  0  0  0
    1.5000   -7.7942    0.0000 O   0  0  0  0  0  0  0  0  0  0  0  0
    0.7500   -9.0933    0.0000 C   0  0  0  0  0  0  0  0  0  0  0  0
  1  2  1  0
  2  3  1  0
  3  4  1  0
  4  5  1  0
  4  6  1  0
  6  7  1  0
  7  8  1  0
  8  9  1  0
  9 10  1  0
 10 11  1  0
 11 12  1  0
 12 13  1  0
 13 14  1  0
 13 15  1  0
 13 16  1  0
 16 17  1  0
 16 18  1  0
 18 19  2  0
 18 20  1  0
 20 21  1  0
 21 22  1  0
 22 23  2  0
 23 24  1  0
 24 25  2  0
 25 26  1  0
 21 27  1  0
 27 28  1  0
 28 29  1  0
 28 30  1  0
 30 31  2  0
 31 32  1  0
 32 33  1  0
 33 34  1  0
 33 35  1  0
 35 36  1  0
  7 37  1  0
 37 38  1  0
 38 39  1  0
 37 40  1  0
 40 41  1  0
 41 42  1  0
 40  3  1  0
 15  9  1  0
 35 11  1  0
M  END
>  <ChEMBL_IDs>  (164) 
nan

>  <target_organism>  (164) 
nan

>  <target_molecule_pref_name>  (164) 
nan

>  <# Known Targets>  (164) 
nan

>  <Known Targets>  (164) 
nan

>  <smiles>  (164) 
COC1C(C)OC(OC2CC3OC(O)(C2)C(C)C(=O)OC(/C=C/C=C/Br)CC(C)/C=C\CC(O)C3C)C(OC)C1OC

$$$$

     RDKit          2D

 42 44  0  0  0  0  0  0  0  0999 V2000
   -3.0000   -7.7942    0.0000 C   0  0  0  0  0  0  0  0  0  0  0  0
   -1.5000   -7.7942    0.0000 O   0  0  0  0  0  0  0  0  0  0  0  0
   -0.7500   -6.4952    0.0000 C   0  0  0  0  0  0  0  0  0  0  0  0
   -1.5000   -5.1962    0.0000 C   0  0  0  0  0  0  0  0  0  0  0  0
   -3.0000   -5.1962    0.0000 C   0  0  0  0  0  0  0  0  0  0  0  0
   -0.7500   -3.8971    0.0000 O   0  0  0  0  0  0  0  0  0  0  0  0
    0.7500   -3.8971    0.0000 C   0  0  0  0  0  0  0  0  0  0  0  0
    1.5000   -2.5981    0.0000 O   0  0  0  0  0  0  0  0  0  0  0  0
    0.7500   -1.2990    0.0000 C   0  0  0  0  0  0  0  0  0  0  0  0
    1.5000    0.0000    0.0000 C   0  0  0  0  0  0  0  0  0  0  0  0
    0.7500    1.2990    0.0000 C   0  0  0  0  0  0  0  0  0  0  0  0
   -0.7500    1.2990    0.0000 O   0  0  0  0  0  0  0  0  0  0  0  0
   -1.5000    0.0000    0.0000 C   0  0  0  0  0  0  0  0  0  0  0  0
   -2.4549    0.2381    0.0000 O   0  0  0  0  0  0  0  0  0  0  0  0
   -0.7500   -1.2990    0.0000 C   0  0  0  0  0  0  0  0  0  0  0  0
   -3.2662    0.0602    0.0000 C   0  0  0  0  0  0  0  0  0  0  0  0
   -3.8142   -1.3361    0.0000 C   0  0  0  0  0  0  0  0  0  0  0  0
   -4.5055    0.9052    0.0000 C   0  0  0  0  0  0  0  0  0  0  0  0
   -5.6051   -0.1151    0.0000 O   0  0  0  0  0  0  0  0  0  0  0  0
   -5.2555    2.2042    0.0000 O   0  0  0  0  0  0  0  0  0  0  0  0
   -5.3676    3.7000    0.0000 C   0  0  0  0  0  0  0  0  0  0  0  0
   -6.8509    3.9236    0.0000 C   0  0  0  0  0  0  0  0  0  0  0  0
   -7.7861    2.7508    0.0000 C   0  0  0  0  0  0  0  0  0  0  0  0
   -9.2694    2.9744    0.0000 C   0  0  0  0  0  0  0  0  0  0  0  0
  -10.2046    1.8017    0.0000 C   0  0  0  0  0  0  0  0  0  0  0  0
  -11.6878    2.0252    0.0000 Br  0  0  0  0  0  0  0  0  0  0  0  0
   -4.8196    5.0963    0.0000 C   0  0  0  0  0  0  0  0  0  0  0  0
   -3.7200    6.1166    0.0000 C   0  0  0  0  0  0  0  0  0  0  0  0
   -4.4700    7.4156    0.0000 C   0  0  0  0  0  0  0  0  0  0  0  0
   -2.2867    6.5587    0.0000 C   0  0  0  0  0  0  0  0  0  0  0  0
   -0.8034    6.3352    0.0000 C   0  0  0  0  0  0  0  0  0  0  0  0
    0.4359    5.4902    0.0000 C   0  0  0  0  0  0  0  0  0  0  0  0
    1.1859    4.1912    0.0000 C   0  0  0  0  0  0  0  0  0  0  0  0
    2.6193    4.6333    0.0000 O   0  0  0  0  0  0  0  0  0  0  0  0
    1.2980    2.6953    0.0000 C   0  0  0  0  0  0  0  0  0  0  0  0
    2.7813    2.4718    0.0000 C   0  0  0  0  0  0  0  0  0  0  0  0
    1.5000   -5.1962    0.0000 C   0  0  0  0  0  0  0  0  0  0  0  0
    3.0000   -5.1962    0.0000 O   0  0  0  0  0  0  0  0  0  0  0  0
    3.7500   -6.4952    0.0000 C   0  0  0  0  0  0  0  0  0  0  0  0
    0.7500   -6.4952    0.0000 C   0  0  0  0  0  0  0  0  0  0  0  0
    1.5000   -7.7942    0.0000 O   0  0  0  0  0  0  0  0  0  0  0  0
    0.7500   -9.0933    0.0000 C   0  0  0  0  0  0  0  0  0  0  0  0
  1  2  1  0
  2  3  1  0
  3  4  1  0
  4  5  1  0
  4  6  1  0
  6  7  1  0
  7  8  1  0
  8  9  1  0
  9 10  1  0
 10 11  1  0
 11 12  1  0
 12 13  1  0
 13 14  1  0
 13 15  1  0
 13 16  1  0
 16 17  1  0
 16 18  1  0
 18 19  2  0
 18 20  1  0
 20 21  1  0
 21 22  1  0
 22 23  2  0
 23 24  1  0
 24 25  2  0
 25 26  1  0
 21 27  1  0
 27 28  1  0
 28 29  1  0
 28 30  1  0
 30 31  2  0
 31 32  1  0
 32 33  1  0
 33 34  1  0
 33 35  1  0
 35 36  1  0
  7 37  1  0
 37 38  1  0
 38 39  1  0
 37 40  1  0
 40 41  1  0
 41 42  1  0
 40  3  1  0
 15  9  1  0
 35 11  1  0
M  END
>  <ChEMBL_IDs>  (165) 
nan

>  <target_organism>  (165) 
nan

>  <target_molecule_pref_name>  (165) 
nan

>  <# Known Targets>  (165) 
nan

>  <Known Targets>  (165) 
nan

>  <smiles>  (165) 
COC1C(C)OC(OC2CC3OC(O)(C2)C(C)C(=O)OC(/C=C/C=C/Br)CC(C)/C=C\CC(O)C3C)C(OC)C1OC

$$$$

     RDKit          2D

 47 49  0  0  0  0  0  0  0  0999 V2000
    8.0606    2.3550    0.0000 C   0  0  0  0  0  0  0  0  0  0  0  0
    6.6378    2.8300    0.0000 C   0  0  0  0  0  0  0  0  0  0  0  0
    5.5150    1.8353    0.0000 C   0  0  0  0  0  0  0  0  0  0  0  0
    4.2806    2.6874    0.0000 O   0  0  0  0  0  0  0  0  0  0  0  0
    2.7915    2.8682    0.0000 C   0  0  0  0  0  0  0  0  0  0  0  0
    2.6107    4.3573    0.0000 O   0  0  0  0  0  0  0  0  0  0  0  0
    1.3890    2.3363    0.0000 C   0  0  0  0  0  0  0  0  0  0  0  0
    0.5369    3.5708    0.0000 C   0  0  0  0  0  0  0  0  0  0  0  0
    0.3943    1.2135    0.0000 C   0  0  0  0  0  0  0  0  0  0  0  0
    0.4989    2.7099    0.0000 O   0  0  0  0  0  0  0  0  0  0  0  0
    1.2760    0.0000    0.0000 O   0  0  0  0  0  0  0  0  0  0  0  0
    0.3943   -1.2135    0.0000 C   0  0  0  0  0  0  0  0  0  0  0  0
    0.6029   -2.2869    0.0000 C   0  0  0  0  0  0  0  0  0  0  0  0
    1.3890   -2.8221    0.0000 C   0  0  0  0  0  0  0  0  0  0  0  0
    2.7915   -3.3540    0.0000 C   0  0  0  0  0  0  0  0  0  0  0  0
    2.7936   -4.8540    0.0000 C   0  0  0  0  0  0  0  0  0  0  0  0
    4.2806   -3.1732    0.0000 C   0  0  0  0  0  0  0  0  0  0  0  0
    4.8125   -4.5757    0.0000 N   0  0  0  0  0  0  0  0  0  0  0  0
    3.8638   -5.7376    0.0000 O   0  0  0  0  0  0  0  0  0  0  0  0
    4.3957   -7.1401    0.0000 C   0  0  0  0  0  0  0  0  0  0  0  0
    3.4470   -8.3020    0.0000 O   0  0  0  0  0  0  0  0  0  0  0  0
    3.9790   -9.7046    0.0000 C   0  0  0  0  0  0  0  0  0  0  0  0
    3.0303  -10.8665    0.0000 C   0  0  0  0  0  0  0  0  0  0  0  0
    3.5622  -12.2690    0.0000 O   0  0  0  0  0  0  0  0  0  0  0  0
    2.6135  -13.4309    0.0000 C   0  0  0  0  0  0  0  0  0  0  0  0
    5.5150   -2.3211    0.0000 C   0  0  0  0  0  0  0  0  0  0  0  0
    6.6378   -3.3158    0.0000 C   0  0  0  0  0  0  0  0  0  0  0  0
    6.2121   -0.9929    0.0000 C   0  0  0  0  0  0  0  0  0  0  0  0
    7.6685   -1.3519    0.0000 O   0  0  0  0  0  0  0  0  0  0  0  0
    6.2121    0.5071    0.0000 C   0  0  0  0  0  0  0  0  0  0  0  0
    7.2068    1.6299    0.0000 C   0  0  0  0  0  0  0  0  0  0  0  0
    7.6147   -0.0248    0.0000 O   0  0  0  0  0  0  0  0  0  0  0  0
   -1.0323   -0.7500    0.0000 C   0  0  0  0  0  0  0  0  0  0  0  0
   -2.2458   -1.6317    0.0000 O   0  0  0  0  0  0  0  0  0  0  0  0
   -2.0890   -3.1235    0.0000 C   0  0  0  0  0  0  0  0  0  0  0  0
   -3.3025   -4.0051    0.0000 O   0  0  0  0  0  0  0  0  0  0  0  0
   -3.1458   -5.4969    0.0000 C   0  0  0  0  0  0  0  0  0  0  0  0
   -4.3593   -6.3786    0.0000 C   0  0  0  0  0  0  0  0  0  0  0  0
   -1.7754   -6.1070    0.0000 C   0  0  0  0  0  0  0  0  0  0  0  0
   -0.5619   -5.2253    0.0000 C   0  0  0  0  0  0  0  0  0  0  0  0
    0.8084   -5.8355    0.0000 N   0  0  0  0  0  0  0  0  0  0  0  0
    0.9652   -7.3272    0.0000 C   0  0  0  0  0  0  0  0  0  0  0  0
    2.1204   -5.1083    0.0000 C   0  0  0  0  0  0  0  0  0  0  0  0
   -0.7187   -3.7336    0.0000 C   0  0  0  0  0  0  0  0  0  0  0  0
    0.2377   -3.2035    0.0000 O   0  0  0  0  0  0  0  0  0  0  0  0
   -1.0323    0.7500    0.0000 C   0  0  0  0  0  0  0  0  0  0  0  0
   -2.2458    1.6317    0.0000 C   0  0  0  0  0  0  0  0  0  0  0  0
  1  2  1  0
  3  2  1  6
  3  4  1  0
  4  5  1  0
  5  6  2  0
  5  7  1  0
  7  8  1  1
  7  9  1  0
  9 10  1  6
  9 11  1  0
 11 12  1  0
 12 13  1  6
 12 14  1  0
 14 15  1  0
 15 16  1  6
 15 17  1  0
 17 18  2  0
 18 19  1  0
 19 20  1  0
 20 21  1  0
 21 22  1  0
 22 23  1  0
 23 24  1  0
 24 25  1  0
 17 26  1  0
 26 27  1  1
 26 28  1  0
 28 29  1  6
 28 30  1  0
 30 31  1  6
 30 32  1  0
 12 33  1  0
 33 34  1  6
 35 34  1  1
 35 36  1  0
 36 37  1  0
 37 38  1  1
 37 39  1  0
 39 40  1  0
 40 41  1  1
 41 42  1  0
 41 43  1  0
 40 44  1  0
 44 45  1  6
 33 46  1  0
 46 47  1  1
 30  3  1  0
 44 35  1  0
 46  9  1  0
M  END
>  <ChEMBL_IDs>  (166) 
CHEMBL2368026

>  <target_organism>  (166) 
Homo sapiens

>  <target_molecule_pref_name>  (166) 
nan

>  <# Known Targets>  (166) 
nan

>  <Known Targets>  (166) 
nan

>  <smiles>  (166) 
CC[C@H]1OC(=O)[C@H](C)[C@@]2(O)O[C@@](C)(C[C@@H](C)/C(=N\OCOCCOC)[C@H](C)[C@@H](O)[C@]1(C)O)[C@H](O[C@@H]1O[C@H](C)C[C@H](N(C)C)[C@H]1O)[C@H]2C

$$$$

     RDKit          2D

 46 48  0  0  0  0  0  0  0  0999 V2000
    7.9509    3.8332    0.0000 C   0  0  0  0  0  0  0  0  0  0  0  0
    6.4677    4.0568    0.0000 C   0  0  0  0  0  0  0  0  0  0  0  0
    5.5324    2.8840    0.0000 C   0  0  0  0  0  0  0  0  0  0  0  0
    4.1810    3.5348    0.0000 O   0  0  0  0  0  0  0  0  0  0  0  0
    2.6810    3.5348    0.0000 C   0  0  0  0  0  0  0  0  0  0  0  0
    2.3472    4.9972    0.0000 O   0  0  0  0  0  0  0  0  0  0  0  0
    1.3295    2.8840    0.0000 C   0  0  0  0  0  0  0  0  0  0  0  0
    0.3943    4.0568    0.0000 C   0  0  0  0  0  0  0  0  0  0  0  0
    0.3943    1.2135    0.0000 C   0  0  0  0  0  0  0  0  0  0  0  0
    0.4989    2.7099    0.0000 O   0  0  0  0  0  0  0  0  0  0  0  0
    1.2760    0.0000    0.0000 O   0  0  0  0  0  0  0  0  0  0  0  0
    0.3943   -1.2135    0.0000 C   0  0  0  0  0  0  0  0  0  0  0  0
    0.6029   -2.2869    0.0000 C   0  0  0  0  0  0  0  0  0  0  0  0
    1.3295   -2.3863    0.0000 C   0  0  0  0  0  0  0  0  0  0  0  0
    2.6810   -3.0371    0.0000 C   0  0  0  0  0  0  0  0  0  0  0  0
    2.5280   -4.5293    0.0000 C   0  0  0  0  0  0  0  0  0  0  0  0
    4.1810   -3.0371    0.0000 C   0  0  0  0  0  0  0  0  0  0  0  0
    5.5324   -2.3863    0.0000 N   0  0  0  0  0  0  0  0  0  0  0  0
    6.4677   -3.5590    0.0000 C   0  0  0  0  0  0  0  0  0  0  0  0
    7.9509   -3.3355    0.0000 O   0  0  0  0  0  0  0  0  0  0  0  0
    5.9197   -4.9553    0.0000 N   0  0  0  0  0  0  0  0  0  0  0  0
    6.8549   -6.1281    0.0000 C   0  0  0  0  0  0  0  0  0  0  0  0
    6.3069   -7.5244    0.0000 C   0  0  0  0  0  0  0  0  0  0  0  0
    8.3381   -5.9045    0.0000 C   0  0  0  0  0  0  0  0  0  0  0  0
    6.4677   -1.2135    0.0000 C   0  0  0  0  0  0  0  0  0  0  0  0
    7.8191   -1.8644    0.0000 C   0  0  0  0  0  0  0  0  0  0  0  0
    6.8015    0.2489    0.0000 C   0  0  0  0  0  0  0  0  0  0  0  0
    8.3015    0.2489    0.0000 O   0  0  0  0  0  0  0  0  0  0  0  0
    6.4677    1.7113    0.0000 C   0  0  0  0  0  0  0  0  0  0  0  0
    7.9509    1.4877    0.0000 C   0  0  0  0  0  0  0  0  0  0  0  0
    7.2177    3.0103    0.0000 O   0  0  0  0  0  0  0  0  0  0  0  0
   -1.0323   -0.7500    0.0000 C   0  0  0  0  0  0  0  0  0  0  0  0
   -2.2458   -1.6317    0.0000 O   0  0  0  0  0  0  0  0  0  0  0  0
   -2.0890   -3.1235    0.0000 C   0  0  0  0  0  0  0  0  0  0  0  0
   -3.3025   -4.0051    0.0000 O   0  0  0  0  0  0  0  0  0  0  0  0
   -3.1458   -5.4969    0.0000 C   0  0  0  0  0  0  0  0  0  0  0  0
   -4.3593   -6.3786    0.0000 C   0  0  0  0  0  0  0  0  0  0  0  0
   -1.7754   -6.1070    0.0000 C   0  0  0  0  0  0  0  0  0  0  0  0
   -0.5619   -5.2253    0.0000 C   0  0  0  0  0  0  0  0  0  0  0  0
    0.8084   -5.8355    0.0000 N   0  0  0  0  0  0  0  0  0  0  0  0
    0.9652   -7.3272    0.0000 C   0  0  0  0  0  0  0  0  0  0  0  0
    2.1204   -5.1083    0.0000 C   0  0  0  0  0  0  0  0  0  0  0  0
   -0.7187   -3.7336    0.0000 C   0  0  0  0  0  0  0  0  0  0  0  0
    0.3440   -3.1446    0.0000 O   0  0  0  0  0  0  0  0  0  0  0  0
   -1.0323    0.7500    0.0000 C   0  0  0  0  0  0  0  0  0  0  0  0
   -2.2458    1.6317    0.0000 C   0  0  0  0  0  0  0  0  0  0  0  0
  1  2  1  0
  3  2  1  6
  3  4  1  0
  4  5  1  0
  5  6  2  0
  5  7  1  0
  7  8  1  1
  7  9  1  0
  9 10  1  0
  9 11  1  0
 11 12  1  0
 12 13  1  6
 12 14  1  0
 14 15  1  0
 15 16  1  6
 15 17  1  0
 17 18  1  0
 18 19  1  0
 19 20  2  0
 19 21  1  0
 21 22  1  0
 22 23  1  0
 22 24  1  0
 18 25  1  0
 25 26  1  1
 25 27  1  0
 27 28  1  6
 27 29  1  0
 29 30  1  6
 29 31  1  0
 12 32  1  0
 32 33  1  6
 34 33  1  1
 34 35  1  0
 35 36  1  0
 36 37  1  1
 36 38  1  0
 38 39  1  0
 39 40  1  1
 40 41  1  0
 40 42  1  0
 39 43  1  0
 43 44  1  6
 32 45  1  0
 45 46  1  1
 29  3  1  0
 43 34  1  0
 45  9  1  0
M  END
>  <ChEMBL_IDs>  (167) 
CHEMBL389465

>  <target_organism>  (167) 
Hepatitis C virus,None

>  <target_molecule_pref_name>  (167) 
nan

>  <# Known Targets>  (167) 
nan

>  <Known Targets>  (167) 
nan

>  <smiles>  (167) 
CC[C@H]1OC(=O)[C@H](C)C2(O)O[C@@](C)(C[C@@H](C)CN(C(=O)NC(C)C)[C@H](C)[C@@H](O)[C@]1(C)O)[C@H](O[C@@H]1O[C@H](C)C[C@H](N(C)C)[C@H]1O)[C@H]2C

$$$$

     RDKit          2D

 45 47  0  0  0  0  0  0  0  0999 V2000
    7.9509    3.8332    0.0000 C   0  0  0  0  0  0  0  0  0  0  0  0
    6.4677    4.0568    0.0000 C   0  0  0  0  0  0  0  0  0  0  0  0
    5.5324    2.8840    0.0000 C   0  0  0  0  0  0  0  0  0  0  0  0
    4.1810    3.5348    0.0000 O   0  0  0  0  0  0  0  0  0  0  0  0
    2.6810    3.5348    0.0000 C   0  0  0  0  0  0  0  0  0  0  0  0
    2.3472    4.9972    0.0000 O   0  0  0  0  0  0  0  0  0  0  0  0
    1.3295    2.8840    0.0000 C   0  0  0  0  0  0  0  0  0  0  0  0
    0.3943    4.0568    0.0000 C   0  0  0  0  0  0  0  0  0  0  0  0
    0.3943    1.2135    0.0000 C   0  0  0  0  0  0  0  0  0  0  0  0
    1.2760    0.0000    0.0000 O   0  0  0  0  0  0  0  0  0  0  0  0
    0.3943   -1.2135    0.0000 C   0  0  0  0  0  0  0  0  0  0  0  0
    0.6029   -2.2869    0.0000 C   0  0  0  0  0  0  0  0  0  0  0  0
    1.3295   -2.3863    0.0000 C   0  0  0  0  0  0  0  0  0  0  0  0
    2.6810   -3.0371    0.0000 C   0  0  0  0  0  0  0  0  0  0  0  0
    2.5280   -4.5293    0.0000 C   0  0  0  0  0  0  0  0  0  0  0  0
    4.1810   -3.0371    0.0000 C   0  0  0  0  0  0  0  0  0  0  0  0
    5.5324   -2.3863    0.0000 N   0  0  0  0  0  0  0  0  0  0  0  0
    6.4677   -3.5590    0.0000 C   0  0  0  0  0  0  0  0  0  0  0  0
    7.9509   -3.3355    0.0000 O   0  0  0  0  0  0  0  0  0  0  0  0
    5.9197   -4.9553    0.0000 N   0  0  0  0  0  0  0  0  0  0  0  0
    6.8549   -6.1281    0.0000 C   0  0  0  0  0  0  0  0  0  0  0  0
    6.3069   -7.5244    0.0000 C   0  0  0  0  0  0  0  0  0  0  0  0
    8.3381   -5.9045    0.0000 C   0  0  0  0  0  0  0  0  0  0  0  0
    6.4677   -1.2135    0.0000 C   0  0  0  0  0  0  0  0  0  0  0  0
    7.8191   -1.8644    0.0000 C   0  0  0  0  0  0  0  0  0  0  0  0
    6.8015    0.2489    0.0000 C   0  0  0  0  0  0  0  0  0  0  0  0
    8.3015    0.2489    0.0000 O   0  0  0  0  0  0  0  0  0  0  0  0
    6.4677    1.7113    0.0000 C   0  0  0  0  0  0  0  0  0  0  0  0
    7.9509    1.4877    0.0000 C   0  0  0  0  0  0  0  0  0  0  0  0
    7.2177    3.0103    0.0000 O   0  0  0  0  0  0  0  0  0  0  0  0
   -1.0323   -0.7500    0.0000 C   0  0  0  0  0  0  0  0  0  0  0  0
   -2.2458   -1.6317    0.0000 O   0  0  0  0  0  0  0  0  0  0  0  0
   -2.0890   -3.1235    0.0000 C   0  0  0  0  0  0  0  0  0  0  0  0
   -3.3025   -4.0051    0.0000 O   0  0  0  0  0  0  0  0  0  0  0  0
   -3.1458   -5.4969    0.0000 C   0  0  0  0  0  0  0  0  0  0  0  0
   -4.3593   -6.3786    0.0000 C   0  0  0  0  0  0  0  0  0  0  0  0
   -1.7754   -6.1070    0.0000 C   0  0  0  0  0  0  0  0  0  0  0  0
   -0.5619   -5.2253    0.0000 C   0  0  0  0  0  0  0  0  0  0  0  0
    0.8084   -5.8355    0.0000 N   0  0  0  0  0  0  0  0  0  0  0  0
    0.9652   -7.3272    0.0000 C   0  0  0  0  0  0  0  0  0  0  0  0
    2.1204   -5.1083    0.0000 C   0  0  0  0  0  0  0  0  0  0  0  0
   -0.7187   -3.7336    0.0000 C   0  0  0  0  0  0  0  0  0  0  0  0
    0.3440   -3.1446    0.0000 O   0  0  0  0  0  0  0  0  0  0  0  0
   -1.0323    0.7500    0.0000 C   0  0  0  0  0  0  0  0  0  0  0  0
   -2.2458    1.6317    0.0000 C   0  0  0  0  0  0  0  0  0  0  0  0
  1  2  1  0
  3  2  1  6
  3  4  1  0
  4  5  1  0
  5  6  2  0
  5  7  1  0
  7  8  1  1
  7  9  1  0
  9 10  1  0
 10 11  1  0
 11 12  1  6
 11 13  1  0
 13 14  1  0
 14 15  1  6
 14 16  1  0
 16 17  1  0
 17 18  1  0
 18 19  2  0
 18 20  1  0
 20 21  1  0
 21 22  1  0
 21 23  1  0
 17 24  1  0
 24 25  1  1
 24 26  1  0
 26 27  1  6
 26 28  1  0
 28 29  1  6
 28 30  1  0
 11 31  1  0
 31 32  1  6
 33 32  1  1
 33 34  1  0
 34 35  1  0
 35 36  1  1
 35 37  1  0
 37 38  1  0
 38 39  1  1
 39 40  1  0
 39 41  1  0
 38 42  1  0
 42 43  1  6
 31 44  1  0
 44 45  1  1
 28  3  1  0
 42 33  1  0
 44  9  1  0
M  END
>  <ChEMBL_IDs>  (168) 
CHEMBL427273

>  <target_organism>  (168) 
Rattus norvegicus

>  <target_molecule_pref_name>  (168) 
nan

>  <# Known Targets>  (168) 
nan

>  <Known Targets>  (168) 
nan

>  <smiles>  (168) 
CC[C@H]1OC(=O)[C@H](C)C2O[C@@](C)(C[C@@H](C)CN(C(=O)NC(C)C)[C@H](C)[C@@H](O)[C@]1(C)O)[C@H](O[C@@H]1O[C@H](C)C[C@H](N(C)C)[C@H]1O)[C@H]2C

$$$$

     RDKit          2D

 47 49  0  0  0  0  0  0  0  0999 V2000
    6.0944   -1.2990    0.0000 C   0  0  0  0  0  0  0  0  0  0  0  0
    5.3444    0.0000    0.0000 C   0  0  0  0  0  0  0  0  0  0  0  0
    3.8444    0.0000    0.0000 C   0  0  0  0  0  0  0  0  0  0  0  0
    3.5517   -1.4712    0.0000 O   0  0  0  0  0  0  0  0  0  0  0  0
    2.7184   -2.7184    0.0000 C   0  0  0  0  0  0  0  0  0  0  0  0
    3.7790   -3.7790    0.0000 O   0  0  0  0  0  0  0  0  0  0  0  0
    1.4712   -3.5517    0.0000 C   0  0  0  0  0  0  0  0  0  0  0  0
   -0.0000   -3.8444    0.0000 C   0  0  0  0  0  0  0  0  0  0  0  0
   -1.4712   -3.5517    0.0000 C   0  0  0  0  0  0  0  0  0  0  0  0
   -1.6507   -4.7534    0.0000 C   0  0  0  0  0  0  0  0  0  0  0  0
   -2.7184   -2.7184    0.0000 C   0  0  0  0  0  0  0  0  0  0  0  0
   -3.7790   -3.7790    0.0000 O   0  0  0  0  0  0  0  0  0  0  0  0
   -3.3908   -5.2279    0.0000 C   0  0  0  0  0  0  0  0  0  0  0  0
   -1.9419   -5.6162    0.0000 O   0  0  0  0  0  0  0  0  0  0  0  0
   -1.5537   -7.0650    0.0000 C   0  0  0  0  0  0  0  0  0  0  0  0
   -0.1048   -7.4533    0.0000 C   0  0  0  0  0  0  0  0  0  0  0  0
   -2.6144   -8.1257    0.0000 C   0  0  0  0  0  0  0  0  0  0  0  0
   -4.0632   -7.7375    0.0000 C   0  0  0  0  0  0  0  0  0  0  0  0
   -5.1239   -8.7981    0.0000 N   0  0  0  0  0  0  0  0  0  0  0  0
   -4.7357  -10.2470    0.0000 C   0  0  0  0  0  0  0  0  0  0  0  0
   -6.5728   -8.4099    0.0000 C   0  0  0  0  0  0  0  0  0  0  0  0
   -4.4515   -6.2886    0.0000 C   0  0  0  0  0  0  0  0  0  0  0  0
   -5.9004   -5.9004    0.0000 O   0  0  0  0  0  0  0  0  0  0  0  0
   -3.5517   -1.4712    0.0000 C   0  0  0  0  0  0  0  0  0  0  0  0
   -4.9376   -2.0452    0.0000 C   0  0  0  0  0  0  0  0  0  0  0  0
   -3.8444    0.0000    0.0000 C   0  0  0  0  0  0  0  0  0  0  0  0
   -3.5517    1.4712    0.0000 C   0  0  0  0  0  0  0  0  0  0  0  0
   -4.9376    2.0452    0.0000 C   0  0  0  0  0  0  0  0  0  0  0  0
   -2.7184    2.7184    0.0000 C   0  0  0  0  0  0  0  0  0  0  0  0
   -3.7790    3.7790    0.0000 O   0  0  0  0  0  0  0  0  0  0  0  0
   -1.4712    3.5517    0.0000 C   0  0  0  0  0  0  0  0  0  0  0  0
    0.0000    3.8444    0.0000 C   0  0  0  0  0  0  0  0  0  0  0  0
    1.4712    3.5517    0.0000 C   0  0  0  0  0  0  0  0  0  0  0  0
    2.7184    2.7184    0.0000 C   0  0  0  0  0  0  0  0  0  0  0  0
    3.5517    1.4712    0.0000 C   0  0  0  0  0  0  0  0  0  0  0  0
    4.9376    2.0452    0.0000 O   0  0  0  0  0  0  0  0  0  0  0  0
    5.1333    3.5324    0.0000 C   0  0  0  0  0  0  0  0  0  0  0  0
    6.5192    4.1064    0.0000 O   0  0  0  0  0  0  0  0  0  0  0  0
    6.7150    5.5936    0.0000 C   0  0  0  0  0  0  0  0  0  0  0  0
    8.1008    6.1676    0.0000 C   0  0  0  0  0  0  0  0  0  0  0  0
    5.5249    6.5067    0.0000 C   0  0  0  0  0  0  0  0  0  0  0  0
    5.7207    7.9939    0.0000 O   0  0  0  0  0  0  0  0  0  0  0  0
    4.1391    5.9327    0.0000 C   0  0  0  0  0  0  0  0  0  0  0  0
    2.9491    6.8458    0.0000 O   0  0  0  0  0  0  0  0  0  0  0  0
    3.1449    8.3330    0.0000 C   0  0  0  0  0  0  0  0  0  0  0  0
    3.9433    4.4455    0.0000 C   0  0  0  0  0  0  0  0  0  0  0  0
    2.5575    3.8715    0.0000 O   0  0  0  0  0  0  0  0  0  0  0  0
  1  2  1  0
  2  3  1  0
  3  4  1  0
  4  5  1  0
  5  6  2  0
  5  7  1  0
  7  8  2  0
  8  9  1  0
  9 10  1  0
  9 11  1  0
 11 12  1  0
 12 13  1  0
 13 14  1  0
 14 15  1  0
 15 16  1  0
 15 17  1  0
 17 18  1  0
 18 19  1  0
 19 20  1  0
 19 21  1  0
 18 22  1  0
 22 23  1  0
 11 24  1  0
 24 25  1  0
 24 26  1  0
 26 27  1  0
 27 28  1  0
 27 29  1  0
 29 30  2  0
 29 31  1  0
 31 32  2  0
 32 33  1  0
 33 34  2  0
 34 35  1  0
 35 36  1  0
 36 37  1  0
 37 38  1  0
 38 39  1  0
 39 40  1  0
 39 41  1  0
 41 42  1  0
 41 43  1  0
 43 44  1  0
 44 45  1  0
 43 46  1  0
 46 47  1  0
 35  3  1  0
 46 37  1  0
 22 13  1  0
M  END
>  <ChEMBL_IDs>  (169) 
nan

>  <target_organism>  (169) 
nan

>  <target_molecule_pref_name>  (169) 
nan

>  <# Known Targets>  (169) 
nan

>  <Known Targets>  (169) 
nan

>  <smiles>  (169) 
CCC1OC(=O)/C=C\C(C)C(OC2OC(C)CC(N(C)C)C2O)C(C)CC(C)C(=O)/C=C\C=C/C1OC1OC(C)C(O)C(OC)C1O

$$$$

     RDKit          2D

 47 49  0  0  0  0  0  0  0  0999 V2000
    6.0944   -1.2990    0.0000 C   0  0  0  0  0  0  0  0  0  0  0  0
    5.3444    0.0000    0.0000 C   0  0  0  0  0  0  0  0  0  0  0  0
    3.8444    0.0000    0.0000 C   0  0  0  0  0  0  0  0  0  0  0  0
    3.5517   -1.4712    0.0000 O   0  0  0  0  0  0  0  0  0  0  0  0
    2.7184   -2.7184    0.0000 C   0  0  0  0  0  0  0  0  0  0  0  0
    3.7790   -3.7790    0.0000 O   0  0  0  0  0  0  0  0  0  0  0  0
    1.4712   -3.5517    0.0000 C   0  0  0  0  0  0  0  0  0  0  0  0
   -0.0000   -3.8444    0.0000 C   0  0  0  0  0  0  0  0  0  0  0  0
   -1.4712   -3.5517    0.0000 C   0  0  0  0  0  0  0  0  0  0  0  0
   -1.6507   -4.7534    0.0000 C   0  0  0  0  0  0  0  0  0  0  0  0
   -2.7184   -2.7184    0.0000 C   0  0  0  0  0  0  0  0  0  0  0  0
   -3.7790   -3.7790    0.0000 O   0  0  0  0  0  0  0  0  0  0  0  0
   -3.3908   -5.2279    0.0000 C   0  0  0  0  0  0  0  0  0  0  0  0
   -1.9419   -5.6162    0.0000 O   0  0  0  0  0  0  0  0  0  0  0  0
   -1.5537   -7.0650    0.0000 C   0  0  0  0  0  0  0  0  0  0  0  0
   -0.1048   -7.4533    0.0000 C   0  0  0  0  0  0  0  0  0  0  0  0
   -2.6144   -8.1257    0.0000 C   0  0  0  0  0  0  0  0  0  0  0  0
   -4.0632   -7.7375    0.0000 C   0  0  0  0  0  0  0  0  0  0  0  0
   -5.1239   -8.7981    0.0000 N   0  0  0  0  0  0  0  0  0  0  0  0
   -4.7357  -10.2470    0.0000 C   0  0  0  0  0  0  0  0  0  0  0  0
   -6.5728   -8.4099    0.0000 C   0  0  0  0  0  0  0  0  0  0  0  0
   -4.4515   -6.2886    0.0000 C   0  0  0  0  0  0  0  0  0  0  0  0
   -5.9004   -5.9004    0.0000 O   0  0  0  0  0  0  0  0  0  0  0  0
   -3.5517   -1.4712    0.0000 C   0  0  0  0  0  0  0  0  0  0  0  0
   -4.9376   -2.0452    0.0000 C   0  0  0  0  0  0  0  0  0  0  0  0
   -3.8444    0.0000    0.0000 C   0  0  0  0  0  0  0  0  0  0  0  0
   -3.5517    1.4712    0.0000 C   0  0  0  0  0  0  0  0  0  0  0  0
   -4.9376    2.0452    0.0000 C   0  0  0  0  0  0  0  0  0  0  0  0
   -2.7184    2.7184    0.0000 C   0  0  0  0  0  0  0  0  0  0  0  0
   -3.7790    3.7790    0.0000 O   0  0  0  0  0  0  0  0  0  0  0  0
   -1.4712    3.5517    0.0000 C   0  0  0  0  0  0  0  0  0  0  0  0
    0.0000    3.8444    0.0000 C   0  0  0  0  0  0  0  0  0  0  0  0
    1.4712    3.5517    0.0000 C   0  0  0  0  0  0  0  0  0  0  0  0
    2.7184    2.7184    0.0000 C   0  0  0  0  0  0  0  0  0  0  0  0
    3.5517    1.4712    0.0000 C   0  0  0  0  0  0  0  0  0  0  0  0
    4.9376    2.0452    0.0000 C   0  0  0  0  0  0  0  0  0  0  0  0
    6.1276    1.1321    0.0000 O   0  0  0  0  0  0  0  0  0  0  0  0
    7.5134    1.7061    0.0000 C   0  0  0  0  0  0  0  0  0  0  0  0
    8.7034    0.7929    0.0000 O   0  0  0  0  0  0  0  0  0  0  0  0
   10.0893    1.3670    0.0000 C   0  0  0  0  0  0  0  0  0  0  0  0
   11.2793    0.4538    0.0000 C   0  0  0  0  0  0  0  0  0  0  0  0
   10.2850    2.8541    0.0000 C   0  0  0  0  0  0  0  0  0  0  0  0
   11.6709    3.4282    0.0000 O   0  0  0  0  0  0  0  0  0  0  0  0
    9.0950    3.7673    0.0000 C   0  0  0  0  0  0  0  0  0  0  0  0
    9.2908    5.2544    0.0000 O   0  0  0  0  0  0  0  0  0  0  0  0
    7.7092    3.1933    0.0000 C   0  0  0  0  0  0  0  0  0  0  0  0
    6.5192    4.1064    0.0000 O   0  0  0  0  0  0  0  0  0  0  0  0
  1  2  1  0
  2  3  1  0
  3  4  1  0
  4  5  1  0
  5  6  2  0
  5  7  1  0
  7  8  2  0
  8  9  1  0
  9 10  1  0
  9 11  1  0
 11 12  1  0
 12 13  1  0
 13 14  1  0
 14 15  1  0
 15 16  1  0
 15 17  1  0
 17 18  1  0
 18 19  1  0
 19 20  1  0
 19 21  1  0
 18 22  1  0
 22 23  1  0
 11 24  1  0
 24 25  1  0
 24 26  1  0
 26 27  1  0
 27 28  1  0
 27 29  1  0
 29 30  2  0
 29 31  1  0
 31 32  2  0
 32 33  1  0
 33 34  2  0
 34 35  1  0
 35 36  1  0
 36 37  1  0
 37 38  1  0
 38 39  1  0
 39 40  1  0
 40 41  1  0
 40 42  1  0
 42 43  1  0
 42 44  1  0
 44 45  1  0
 44 46  1  0
 46 47  1  0
 35  3  1  0
 46 38  1  0
 22 13  1  0
M  END
>  <ChEMBL_IDs>  (170) 
nan

>  <target_organism>  (170) 
nan

>  <target_molecule_pref_name>  (170) 
nan

>  <# Known Targets>  (170) 
nan

>  <Known Targets>  (170) 
nan

>  <smiles>  (170) 
CCC1OC(=O)/C=C\C(C)C(OC2OC(C)CC(N(C)C)C2O)C(C)CC(C)C(=O)/C=C\C=C/C1COC1OC(C)C(O)C(O)C1O

$$$$

     RDKit          2D

 47 49  0  0  0  0  0  0  0  0999 V2000
    6.0944   -1.2990    0.0000 C   0  0  0  0  0  0  0  0  0  0  0  0
    5.3444    0.0000    0.0000 C   0  0  0  0  0  0  0  0  0  0  0  0
    3.8444    0.0000    0.0000 C   0  0  0  0  0  0  0  0  0  0  0  0
    3.5517   -1.4712    0.0000 O   0  0  0  0  0  0  0  0  0  0  0  0
    2.7184   -2.7184    0.0000 C   0  0  0  0  0  0  0  0  0  0  0  0
    3.7790   -3.7790    0.0000 O   0  0  0  0  0  0  0  0  0  0  0  0
    1.4712   -3.5517    0.0000 C   0  0  0  0  0  0  0  0  0  0  0  0
   -0.0000   -3.8444    0.0000 C   0  0  0  0  0  0  0  0  0  0  0  0
   -1.4712   -3.5517    0.0000 C   0  0  0  0  0  0  0  0  0  0  0  0
   -1.6507   -4.7534    0.0000 C   0  0  0  0  0  0  0  0  0  0  0  0
   -2.7184   -2.7184    0.0000 C   0  0  0  0  0  0  0  0  0  0  0  0
   -3.7790   -3.7790    0.0000 O   0  0  0  0  0  0  0  0  0  0  0  0
   -3.3908   -5.2279    0.0000 C   0  0  0  0  0  0  0  0  0  0  0  0
   -1.9419   -5.6162    0.0000 O   0  0  0  0  0  0  0  0  0  0  0  0
   -1.5537   -7.0650    0.0000 C   0  0  0  0  0  0  0  0  0  0  0  0
   -0.1048   -7.4533    0.0000 C   0  0  0  0  0  0  0  0  0  0  0  0
   -2.6144   -8.1257    0.0000 C   0  0  0  0  0  0  0  0  0  0  0  0
   -4.0632   -7.7375    0.0000 C   0  0  0  0  0  0  0  0  0  0  0  0
   -5.1239   -8.7981    0.0000 N   0  0  0  0  0  0  0  0  0  0  0  0
   -4.7357  -10.2470    0.0000 C   0  0  0  0  0  0  0  0  0  0  0  0
   -6.5728   -8.4099    0.0000 C   0  0  0  0  0  0  0  0  0  0  0  0
   -4.4515   -6.2886    0.0000 C   0  0  0  0  0  0  0  0  0  0  0  0
   -5.9004   -5.9004    0.0000 O   0  0  0  0  0  0  0  0  0  0  0  0
   -3.5517   -1.4712    0.0000 C   0  0  0  0  0  0  0  0  0  0  0  0
   -4.9376   -2.0452    0.0000 C   0  0  0  0  0  0  0  0  0  0  0  0
   -3.8444    0.0000    0.0000 C   0  0  0  0  0  0  0  0  0  0  0  0
   -3.5517    1.4712    0.0000 C   0  0  0  0  0  0  0  0  0  0  0  0
   -4.9376    2.0452    0.0000 C   0  0  0  0  0  0  0  0  0  0  0  0
   -2.7184    2.7184    0.0000 C   0  0  0  0  0  0  0  0  0  0  0  0
   -3.7790    3.7790    0.0000 O   0  0  0  0  0  0  0  0  0  0  0  0
   -1.4712    3.5517    0.0000 C   0  0  0  0  0  0  0  0  0  0  0  0
    0.0000    3.8444    0.0000 C   0  0  0  0  0  0  0  0  0  0  0  0
    1.4712    3.5517    0.0000 C   0  0  0  0  0  0  0  0  0  0  0  0
    2.7184    2.7184    0.0000 C   0  0  0  0  0  0  0  0  0  0  0  0
    3.5517    1.4712    0.0000 C   0  0  0  0  0  0  0  0  0  0  0  0
    4.9376    2.0452    0.0000 C   0  0  0  0  0  0  0  0  0  0  0  0
    6.1276    1.1321    0.0000 O   0  0  0  0  0  0  0  0  0  0  0  0
    7.5134    1.7061    0.0000 C   0  0  0  0  0  0  0  0  0  0  0  0
    8.7034    0.7929    0.0000 O   0  0  0  0  0  0  0  0  0  0  0  0
   10.0893    1.3670    0.0000 C   0  0  0  0  0  0  0  0  0  0  0  0
   11.2793    0.4538    0.0000 C   0  0  0  0  0  0  0  0  0  0  0  0
   10.2850    2.8541    0.0000 C   0  0  0  0  0  0  0  0  0  0  0  0
   11.6709    3.4282    0.0000 O   0  0  0  0  0  0  0  0  0  0  0  0
    9.0950    3.7673    0.0000 C   0  0  0  0  0  0  0  0  0  0  0  0
    9.2908    5.2544    0.0000 O   0  0  0  0  0  0  0  0  0  0  0  0
    7.7092    3.1933    0.0000 C   0  0  0  0  0  0  0  0  0  0  0  0
    6.5192    4.1064    0.0000 O   0  0  0  0  0  0  0  0  0  0  0  0
  1  2  1  0
  2  3  1  0
  3  4  1  0
  4  5  1  0
  5  6  2  0
  5  7  1  0
  7  8  2  0
  8  9  1  0
  9 10  1  0
  9 11  1  0
 11 12  1  0
 12 13  1  0
 13 14  1  0
 14 15  1  0
 15 16  1  0
 15 17  1  0
 17 18  1  0
 18 19  1  0
 19 20  1  0
 19 21  1  0
 18 22  1  0
 22 23  1  0
 11 24  1  0
 24 25  1  0
 24 26  1  0
 26 27  1  0
 27 28  1  0
 27 29  1  0
 29 30  2  0
 29 31  1  0
 31 32  2  0
 32 33  1  0
 33 34  2  0
 34 35  1  0
 35 36  1  0
 36 37  1  0
 37 38  1  0
 38 39  1  0
 39 40  1  0
 40 41  1  0
 40 42  1  0
 42 43  1  0
 42 44  1  0
 44 45  1  0
 44 46  1  0
 46 47  1  0
 35  3  1  0
 46 38  1  0
 22 13  1  0
M  END
>  <ChEMBL_IDs>  (171) 
nan

>  <target_organism>  (171) 
nan

>  <target_molecule_pref_name>  (171) 
nan

>  <# Known Targets>  (171) 
nan

>  <Known Targets>  (171) 
nan

>  <smiles>  (171) 
CCC1OC(=O)/C=C\C(C)C(OC2OC(C)CC(N(C)C)C2O)C(C)CC(C)C(=O)/C=C\C=C/C1COC1OC(C)C(O)C(O)C1O

$$$$

     RDKit          2D

 48 50  0  0  0  0  0  0  0  0999 V2000
    6.0944   -1.2990    0.0000 C   0  0  0  0  0  0  0  0  0  0  0  0
    5.3444    0.0000    0.0000 C   0  0  0  0  0  0  0  0  0  0  0  0
    3.8444    0.0000    0.0000 C   0  0  0  0  0  0  0  0  0  0  0  0
    3.5517   -1.4712    0.0000 O   0  0  0  0  0  0  0  0  0  0  0  0
    2.7184   -2.7184    0.0000 C   0  0  0  0  0  0  0  0  0  0  0  0
    3.7790   -3.7790    0.0000 O   0  0  0  0  0  0  0  0  0  0  0  0
    1.4712   -3.5517    0.0000 C   0  0  0  0  0  0  0  0  0  0  0  0
   -0.0000   -3.8444    0.0000 C   0  0  0  0  0  0  0  0  0  0  0  0
   -1.4712   -3.5517    0.0000 C   0  0  0  0  0  0  0  0  0  0  0  0
   -1.6507   -4.7534    0.0000 C   0  0  0  0  0  0  0  0  0  0  0  0
   -2.7184   -2.7184    0.0000 C   0  0  0  0  0  0  0  0  0  0  0  0
   -3.7790   -3.7790    0.0000 O   0  0  0  0  0  0  0  0  0  0  0  0
   -3.3908   -5.2279    0.0000 C   0  0  0  0  0  0  0  0  0  0  0  0
   -1.9419   -5.6162    0.0000 O   0  0  0  0  0  0  0  0  0  0  0  0
   -1.5537   -7.0650    0.0000 C   0  0  0  0  0  0  0  0  0  0  0  0
   -0.1048   -7.4533    0.0000 C   0  0  0  0  0  0  0  0  0  0  0  0
   -2.6144   -8.1257    0.0000 C   0  0  0  0  0  0  0  0  0  0  0  0
   -4.0632   -7.7375    0.0000 C   0  0  0  0  0  0  0  0  0  0  0  0
   -5.1239   -8.7981    0.0000 N   0  0  0  0  0  0  0  0  0  0  0  0
   -4.7357  -10.2470    0.0000 C   0  0  0  0  0  0  0  0  0  0  0  0
   -6.5728   -8.4099    0.0000 C   0  0  0  0  0  0  0  0  0  0  0  0
   -4.4515   -6.2886    0.0000 C   0  0  0  0  0  0  0  0  0  0  0  0
   -5.9004   -5.9004    0.0000 O   0  0  0  0  0  0  0  0  0  0  0  0
   -3.5517   -1.4712    0.0000 C   0  0  0  0  0  0  0  0  0  0  0  0
   -4.9376   -2.0452    0.0000 C   0  0  0  0  0  0  0  0  0  0  0  0
   -3.8444    0.0000    0.0000 C   0  0  0  0  0  0  0  0  0  0  0  0
   -3.5517    1.4712    0.0000 C   0  0  0  0  0  0  0  0  0  0  0  0
   -4.9376    2.0452    0.0000 C   0  0  0  0  0  0  0  0  0  0  0  0
   -2.7184    2.7184    0.0000 C   0  0  0  0  0  0  0  0  0  0  0  0
   -3.7790    3.7790    0.0000 O   0  0  0  0  0  0  0  0  0  0  0  0
   -1.4712    3.5517    0.0000 C   0  0  0  0  0  0  0  0  0  0  0  0
    0.0000    3.8444    0.0000 C   0  0  0  0  0  0  0  0  0  0  0  0
    1.4712    3.5517    0.0000 C   0  0  0  0  0  0  0  0  0  0  0  0
    2.7184    2.7184    0.0000 C   0  0  0  0  0  0  0  0  0  0  0  0
    3.5517    1.4712    0.0000 C   0  0  0  0  0  0  0  0  0  0  0  0
    5.0229    1.1785    0.0000 O   0  0  0  0  0  0  0  0  0  0  0  0
    4.3851    2.7184    0.0000 C   0  0  0  0  0  0  0  0  0  0  0  0
    5.8819    2.6203    0.0000 O   0  0  0  0  0  0  0  0  0  0  0  0
    6.7152    3.8675    0.0000 C   0  0  0  0  0  0  0  0  0  0  0  0
    8.2120    3.7694    0.0000 O   0  0  0  0  0  0  0  0  0  0  0  0
    9.0454    5.0166    0.0000 C   0  0  0  0  0  0  0  0  0  0  0  0
   10.5422    4.9185    0.0000 C   0  0  0  0  0  0  0  0  0  0  0  0
    8.3819    6.3619    0.0000 C   0  0  0  0  0  0  0  0  0  0  0  0
    9.2153    7.6091    0.0000 O   0  0  0  0  0  0  0  0  0  0  0  0
    6.8852    6.4600    0.0000 C   0  0  0  0  0  0  0  0  0  0  0  0
    6.2217    7.8053    0.0000 O   0  0  0  0  0  0  0  0  0  0  0  0
    6.0518    5.2128    0.0000 C   0  0  0  0  0  0  0  0  0  0  0  0
    4.5550    5.3109    0.0000 O   0  0  0  0  0  0  0  0  0  0  0  0
  1  2  1  0
  2  3  1  0
  3  4  1  0
  4  5  1  0
  5  6  2  0
  5  7  1  0
  7  8  2  0
  8  9  1  0
  9 10  1  0
  9 11  1  0
 11 12  1  0
 12 13  1  0
 13 14  1  0
 14 15  1  0
 15 16  1  0
 15 17  1  0
 17 18  1  0
 18 19  1  0
 19 20  1  0
 19 21  1  0
 18 22  1  0
 22 23  1  0
 11 24  1  0
 24 25  1  0
 24 26  1  0
 26 27  1  0
 27 28  1  0
 27 29  1  0
 29 30  2  0
 29 31  1  0
 31 32  2  0
 32 33  1  0
 33 34  2  0
 34 35  1  0
 35 36  1  0
 35 37  1  0
 37 38  1  0
 38 39  1  0
 39 40  1  0
 40 41  1  0
 41 42  1  0
 41 43  1  0
 43 44  1  0
 43 45  1  0
 45 46  1  0
 45 47  1  0
 47 48  1  0
 35  3  1  0
 47 39  1  0
 22 13  1  0
M  END
>  <ChEMBL_IDs>  (172) 
nan

>  <target_organism>  (172) 
nan

>  <target_molecule_pref_name>  (172) 
nan

>  <# Known Targets>  (172) 
nan

>  <Known Targets>  (172) 
nan

>  <smiles>  (172) 
CCC1OC(=O)/C=C\C(C)C(OC2OC(C)CC(N(C)C)C2O)C(C)CC(C)C(=O)/C=C\C=C/C1(O)COC1OC(C)C(O)C(O)C1O

$$$$

     RDKit          2D

 47 49  0  0  0  0  0  0  0  0999 V2000
   11.2793   -0.4538    0.0000 C   0  0  0  0  0  0  0  0  0  0  0  0
   10.0893   -1.3670    0.0000 O   0  0  0  0  0  0  0  0  0  0  0  0
    8.7034   -0.7929    0.0000 C   0  0  0  0  0  0  0  0  0  0  0  0
    8.5076    0.6942    0.0000 C   0  0  0  0  0  0  0  0  0  0  0  0
    7.1218    1.2682    0.0000 C   0  0  0  0  0  0  0  0  0  0  0  0
    6.9260    2.7554    0.0000 C   0  0  0  0  0  0  0  0  0  0  0  0
    5.9318    0.3551    0.0000 O   0  0  0  0  0  0  0  0  0  0  0  0
    6.1276   -1.1321    0.0000 C   0  0  0  0  0  0  0  0  0  0  0  0
    4.9376   -2.0452    0.0000 O   0  0  0  0  0  0  0  0  0  0  0  0
    3.5517   -1.4712    0.0000 C   0  0  0  0  0  0  0  0  0  0  0  0
    3.8444    0.0000    0.0000 C   0  0  0  0  0  0  0  0  0  0  0  0
    5.0233    0.2940    0.0000 C   0  0  0  0  0  0  0  0  0  0  0  0
    3.5517    1.4712    0.0000 C   0  0  0  0  0  0  0  0  0  0  0  0
    2.7184    2.7184    0.0000 C   0  0  0  0  0  0  0  0  0  0  0  0
    1.4712    3.5517    0.0000 C   0  0  0  0  0  0  0  0  0  0  0  0
    2.0452    4.9376    0.0000 O   0  0  0  0  0  0  0  0  0  0  0  0
    0.0000    3.8444    0.0000 O   0  0  0  0  0  0  0  0  0  0  0  0
   -1.4712    3.5517    0.0000 C   0  0  0  0  0  0  0  0  0  0  0  0
   -2.0452    4.9376    0.0000 C   0  0  0  0  0  0  0  0  0  0  0  0
   -2.7184    2.7184    0.0000 C   0  0  0  0  0  0  0  0  0  0  0  0
   -3.7790    3.7790    0.0000 C   0  0  0  0  0  0  0  0  0  0  0  0
   -3.3908    5.2279    0.0000 O   0  0  0  0  0  0  0  0  0  0  0  0
   -4.4515    6.2886    0.0000 C   0  0  0  0  0  0  0  0  0  0  0  0
   -4.0632    7.7375    0.0000 O   0  0  0  0  0  0  0  0  0  0  0  0
   -5.1239    8.7981    0.0000 C   0  0  0  0  0  0  0  0  0  0  0  0
   -4.7357   10.2470    0.0000 C   0  0  0  0  0  0  0  0  0  0  0  0
   -6.5728    8.4099    0.0000 C   0  0  0  0  0  0  0  0  0  0  0  0
   -7.6335    9.4706    0.0000 O   0  0  0  0  0  0  0  0  0  0  0  0
   -6.9610    6.9610    0.0000 C   0  0  0  0  0  0  0  0  0  0  0  0
   -8.4099    6.5728    0.0000 O   0  0  0  0  0  0  0  0  0  0  0  0
   -8.7981    5.1239    0.0000 C   0  0  0  0  0  0  0  0  0  0  0  0
   -5.9004    5.9004    0.0000 C   0  0  0  0  0  0  0  0  0  0  0  0
   -6.2886    4.4515    0.0000 O   0  0  0  0  0  0  0  0  0  0  0  0
   -7.7375    4.0632    0.0000 C   0  0  0  0  0  0  0  0  0  0  0  0
   -3.5517    1.4712    0.0000 C   0  0  0  0  0  0  0  0  0  0  0  0
   -3.8444    0.0000    0.0000 C   0  0  0  0  0  0  0  0  0  0  0  0
   -3.5517   -1.4712    0.0000 C   0  0  0  0  0  0  0  0  0  0  0  0
   -2.7184   -2.7184    0.0000 C   0  0  0  0  0  0  0  0  0  0  0  0
   -1.4712   -3.5517    0.0000 C   0  0  0  0  0  0  0  0  0  0  0  0
   -2.0452   -4.9376    0.0000 O   0  0  0  0  0  0  0  0  0  0  0  0
   -0.0000   -3.8444    0.0000 C   0  0  0  0  0  0  0  0  0  0  0  0
   -0.0000   -5.3444    0.0000 C   0  0  0  0  0  0  0  0  0  0  0  0
    1.4712   -3.5517    0.0000 C   0  0  0  0  0  0  0  0  0  0  0  0
    2.7184   -2.7184    0.0000 C   0  0  0  0  0  0  0  0  0  0  0  0
    3.7790   -3.7790    0.0000 C   0  0  0  0  0  0  0  0  0  0  0  0
    7.5134   -1.7061    0.0000 C   0  0  0  0  0  0  0  0  0  0  0  0
    7.7092   -3.1933    0.0000 O   0  0  0  0  0  0  0  0  0  0  0  0
  1  2  1  0
  2  3  1  0
  3  4  1  0
  4  5  1  0
  5  6  1  0
  5  7  1  0
  7  8  1  0
  8  9  1  0
  9 10  1  0
 10 11  1  0
 11 12  1  0
 11 13  1  0
 13 14  2  0
 14 15  1  0
 15 16  2  0
 15 17  1  0
 17 18  1  0
 18 19  1  0
 18 20  1  0
 20 21  1  0
 21 22  1  0
 22 23  1  0
 23 24  1  0
 24 25  1  0
 25 26  1  0
 25 27  1  0
 27 28  1  0
 27 29  1  0
 29 30  1  0
 30 31  1  0
 29 32  1  0
 32 33  1  0
 33 34  1  0
 20 35  1  0
 35 36  2  0
 36 37  1  0
 37 38  1  0
 38 39  1  0
 39 40  2  0
 39 41  1  0
 41 42  1  0
 41 43  1  0
 43 44  1  0
 44 45  1  0
  8 46  1  0
 46 47  1  0
 46  3  1  0
 44 10  1  0
 32 23  1  0
M  END
>  <ChEMBL_IDs>  (173) 
nan

>  <target_organism>  (173) 
nan

>  <target_molecule_pref_name>  (173) 
nan

>  <# Known Targets>  (173) 
nan

>  <Known Targets>  (173) 
nan

>  <smiles>  (173) 
COC1CC(C)OC(OC2C(C)/C=C\C(=O)OC(C)C(COC3OC(C)C(O)C(OC)C3OC)/C=C\CCC(=O)C(C)CC2C)C1O

$$$$

     RDKit          2D

 49 51  0  0  0  0  0  0  0  0999 V2000
    6.0944   -1.2990    0.0000 C   0  0  0  0  0  0  0  0  0  0  0  0
    5.3444    0.0000    0.0000 O   0  0  0  0  0  0  0  0  0  0  0  0
    3.8444    0.0000    0.0000 C   0  0  0  0  0  0  0  0  0  0  0  0
    3.5517   -1.4712    0.0000 C   0  0  0  0  0  0  0  0  0  0  0  0
    4.9376   -2.0452    0.0000 O   0  0  0  0  0  0  0  0  0  0  0  0
    2.7184   -2.7184    0.0000 C   0  0  0  0  0  0  0  0  0  0  0  0
    1.4712   -3.5517    0.0000 C   0  0  0  0  0  0  0  0  0  0  0  0
    2.0452   -4.9376    0.0000 O   0  0  0  0  0  0  0  0  0  0  0  0
   -0.0000   -3.8444    0.0000 O   0  0  0  0  0  0  0  0  0  0  0  0
   -1.4712   -3.5517    0.0000 C   0  0  0  0  0  0  0  0  0  0  0  0
   -2.0452   -4.9376    0.0000 C   0  0  0  0  0  0  0  0  0  0  0  0
   -2.7184   -2.7184    0.0000 C   0  0  0  0  0  0  0  0  0  0  0  0
   -3.5517   -1.4712    0.0000 C   0  0  0  0  0  0  0  0  0  0  0  0
   -3.8444    0.0000    0.0000 C   0  0  0  0  0  0  0  0  0  0  0  0
   -3.5517    1.4712    0.0000 C   0  0  0  0  0  0  0  0  0  0  0  0
   -2.7184    2.7184    0.0000 C   0  0  0  0  0  0  0  0  0  0  0  0
   -1.4712    3.5517    0.0000 C   0  0  0  0  0  0  0  0  0  0  0  0
   -2.0452    4.9376    0.0000 O   0  0  0  0  0  0  0  0  0  0  0  0
    0.0000    3.8444    0.0000 C   0  0  0  0  0  0  0  0  0  0  0  0
    0.0000    5.3444    0.0000 C   0  0  0  0  0  0  0  0  0  0  0  0
    1.4712    3.5517    0.0000 C   0  0  0  0  0  0  0  0  0  0  0  0
    2.7184    2.7184    0.0000 C   0  0  0  0  0  0  0  0  0  0  0  0
    3.7790    3.7790    0.0000 C   0  0  0  0  0  0  0  0  0  0  0  0
    5.2279    3.3908    0.0000 C   0  0  0  0  0  0  0  0  0  0  0  0
    3.3908    5.2279    0.0000 O   0  0  0  0  0  0  0  0  0  0  0  0
    3.5517    1.4712    0.0000 C   0  0  0  0  0  0  0  0  0  0  0  0
    4.9376    2.0452    0.0000 O   0  0  0  0  0  0  0  0  0  0  0  0
    6.1276    1.1321    0.0000 C   0  0  0  0  0  0  0  0  0  0  0  0
    5.9318   -0.3551    0.0000 O   0  0  0  0  0  0  0  0  0  0  0  0
    7.1218   -1.2682    0.0000 C   0  0  0  0  0  0  0  0  0  0  0  0
    6.9260   -2.7554    0.0000 C   0  0  0  0  0  0  0  0  0  0  0  0
    8.5076   -0.6942    0.0000 C   0  0  0  0  0  0  0  0  0  0  0  0
    9.6977   -1.6074    0.0000 O   0  0  0  0  0  0  0  0  0  0  0  0
   11.0835   -1.0333    0.0000 C   0  0  0  0  0  0  0  0  0  0  0  0
   12.2735   -1.9465    0.0000 C   0  0  0  0  0  0  0  0  0  0  0  0
   13.6593   -1.3725    0.0000 C   0  0  0  0  0  0  0  0  0  0  0  0
   15.1579   -1.3070    0.0000 C   0  0  0  0  0  0  0  0  0  0  0  0
   13.9840   -2.8369    0.0000 O   0  0  0  0  0  0  0  0  0  0  0  0
   13.8551    0.1147    0.0000 C   0  0  0  0  0  0  0  0  0  0  0  0
   15.2410    0.6887    0.0000 O   0  0  0  0  0  0  0  0  0  0  0  0
   12.6651    1.0279    0.0000 C   0  0  0  0  0  0  0  0  0  0  0  0
   12.8609    2.5150    0.0000 C   0  0  0  0  0  0  0  0  0  0  0  0
   11.2793    0.4538    0.0000 O   0  0  0  0  0  0  0  0  0  0  0  0
    8.7034    0.7929    0.0000 C   0  0  0  0  0  0  0  0  0  0  0  0
   10.0893    1.3670    0.0000 N   0  0  0  0  0  0  0  0  0  0  0  0
   10.2850    2.8541    0.0000 C   0  0  0  0  0  0  0  0  0  0  0  0
   11.4649    0.7689    0.0000 C   0  0  0  0  0  0  0  0  0  0  0  0
    7.5134    1.7061    0.0000 C   0  0  0  0  0  0  0  0  0  0  0  0
    7.7092    3.1933    0.0000 O   0  0  0  0  0  0  0  0  0  0  0  0
  1  2  1  0
  2  3  1  0
  3  4  1  0
  4  5  1  0
  4  6  1  0
  6  7  1  0
  7  8  2  0
  7  9  1  0
  9 10  1  0
 10 11  1  0
 10 12  1  0
 12 13  1  0
 13 14  2  0
 14 15  1  0
 15 16  2  0
 16 17  1  0
 17 18  1  0
 17 19  1  0
 19 20  1  0
 19 21  1  0
 21 22  1  0
 22 23  1  0
 23 24  1  0
 23 25  2  0
 22 26  1  0
 26 27  1  0
 27 28  1  0
 28 29  1  0
 29 30  1  0
 30 31  1  0
 30 32  1  0
 32 33  1  0
 33 34  1  0
 34 35  1  0
 35 36  1  0
 36 37  1  0
 36 38  1  0
 36 39  1  0
 39 40  1  0
 39 41  1  0
 41 42  1  0
 41 43  1  0
 32 44  1  0
 44 45  1  0
 45 46  1  0
 45 47  1  0
 44 48  1  0
 48 49  1  0
 26  3  1  0
 48 28  1  0
 43 34  1  0
M  END
>  <ChEMBL_IDs>  (174) 
nan

>  <target_organism>  (174) 
nan

>  <target_molecule_pref_name>  (174) 
nan

>  <# Known Targets>  (174) 
nan

>  <Known Targets>  (174) 
nan

>  <smiles>  (174) 
COC1C(O)CC(=O)OC(C)C/C=C\C=C/C(O)C(C)CC(C(C)=O)C1OC1OC(C)C(OC2CC(C)(O)C(O)C(C)O2)C(N(C)C)C1O

$$$$

     RDKit          2D

 49 51  0  0  0  0  0  0  0  0999 V2000
    6.0944    1.2990    0.0000 C   0  0  0  0  0  0  0  0  0  0  0  0
    5.3444    0.0000    0.0000 O   0  0  0  0  0  0  0  0  0  0  0  0
    3.8444    0.0000    0.0000 C   0  0  0  0  0  0  0  0  0  0  0  0
    3.5517   -1.4712    0.0000 C   0  0  0  0  0  0  0  0  0  0  0  0
    4.9376   -2.0452    0.0000 O   0  0  0  0  0  0  0  0  0  0  0  0
    6.1276   -1.1321    0.0000 C   0  0  0  0  0  0  0  0  0  0  0  0
    5.9318    0.3551    0.0000 O   0  0  0  0  0  0  0  0  0  0  0  0
    7.1218    1.2682    0.0000 C   0  0  0  0  0  0  0  0  0  0  0  0
    6.9260    2.7554    0.0000 C   0  0  0  0  0  0  0  0  0  0  0  0
    8.5076    0.6942    0.0000 C   0  0  0  0  0  0  0  0  0  0  0  0
    9.6977    1.6074    0.0000 O   0  0  0  0  0  0  0  0  0  0  0  0
    9.5019    3.0945    0.0000 C   0  0  0  0  0  0  0  0  0  0  0  0
   10.6919    4.0077    0.0000 C   0  0  0  0  0  0  0  0  0  0  0  0
   10.4961    5.4948    0.0000 C   0  0  0  0  0  0  0  0  0  0  0  0
   10.8208    6.9593    0.0000 C   0  0  0  0  0  0  0  0  0  0  0  0
   11.9947    5.4294    0.0000 O   0  0  0  0  0  0  0  0  0  0  0  0
    9.1103    6.0689    0.0000 C   0  0  0  0  0  0  0  0  0  0  0  0
    8.9145    7.5560    0.0000 O   0  0  0  0  0  0  0  0  0  0  0  0
    7.9203    5.1557    0.0000 C   0  0  0  0  0  0  0  0  0  0  0  0
    6.5345    5.7298    0.0000 C   0  0  0  0  0  0  0  0  0  0  0  0
    8.1161    3.6686    0.0000 O   0  0  0  0  0  0  0  0  0  0  0  0
    8.7034   -0.7929    0.0000 C   0  0  0  0  0  0  0  0  0  0  0  0
   10.0893   -1.3670    0.0000 N   0  0  0  0  0  0  0  0  0  0  0  0
   11.2793   -0.4538    0.0000 C   0  0  0  0  0  0  0  0  0  0  0  0
   10.2850   -2.8541    0.0000 C   0  0  0  0  0  0  0  0  0  0  0  0
    7.5134   -1.7061    0.0000 C   0  0  0  0  0  0  0  0  0  0  0  0
    7.7092   -3.1933    0.0000 O   0  0  0  0  0  0  0  0  0  0  0  0
    2.7184   -2.7184    0.0000 C   0  0  0  0  0  0  0  0  0  0  0  0
    3.7790   -3.7790    0.0000 C   0  0  0  0  0  0  0  0  0  0  0  0
    3.3908   -5.2279    0.0000 C   0  0  0  0  0  0  0  0  0  0  0  0
    4.4515   -6.2886    0.0000 O   0  0  0  0  0  0  0  0  0  0  0  0
    1.4712   -3.5517    0.0000 C   0  0  0  0  0  0  0  0  0  0  0  0
   -0.0000   -3.8444    0.0000 C   0  0  0  0  0  0  0  0  0  0  0  0
   -0.0000   -5.3444    0.0000 C   0  0  0  0  0  0  0  0  0  0  0  0
   -1.4712   -3.5517    0.0000 C   0  0  0  0  0  0  0  0  0  0  0  0
   -2.0452   -4.9376    0.0000 O   0  0  0  0  0  0  0  0  0  0  0  0
   -2.7184   -2.7184    0.0000 C   0  0  0  0  0  0  0  0  0  0  0  0
   -3.5517   -1.4712    0.0000 C   0  0  0  0  0  0  0  0  0  0  0  0
   -3.8444    0.0000    0.0000 C   0  0  0  0  0  0  0  0  0  0  0  0
   -3.5517    1.4712    0.0000 C   0  0  0  0  0  0  0  0  0  0  0  0
   -2.7184    2.7184    0.0000 C   0  0  0  0  0  0  0  0  0  0  0  0
   -1.4712    3.5517    0.0000 C   0  0  0  0  0  0  0  0  0  0  0  0
   -2.0452    4.9376    0.0000 C   0  0  0  0  0  0  0  0  0  0  0  0
    0.0000    3.8444    0.0000 O   0  0  0  0  0  0  0  0  0  0  0  0
    1.4712    3.5517    0.0000 C   0  0  0  0  0  0  0  0  0  0  0  0
    2.0452    4.9376    0.0000 O   0  0  0  0  0  0  0  0  0  0  0  0
    2.7184    2.7184    0.0000 C   0  0  0  0  0  0  0  0  0  0  0  0
    3.5517    1.4712    0.0000 C   0  0  0  0  0  0  0  0  0  0  0  0
    4.9376    2.0452    0.0000 O   0  0  0  0  0  0  0  0  0  0  0  0
  1  2  1  0
  3  2  1  6
  3  4  1  0
  4  5  1  1
  6  5  1  6
  6  7  1  0
  7  8  1  0
  8  9  1  6
  8 10  1  0
 10 11  1  1
 12 11  1  6
 12 13  1  0
 13 14  1  0
 14 15  1  1
 14 16  1  0
 14 17  1  0
 17 18  1  6
 17 19  1  0
 19 20  1  1
 19 21  1  0
 10 22  1  0
 22 23  1  6
 23 24  1  0
 23 25  1  0
 22 26  1  0
 26 27  1  1
  4 28  1  0
 28 29  1  1
 29 30  1  0
 30 31  2  0
 28 32  1  0
 32 33  1  0
 33 34  1  1
 33 35  1  0
 35 36  1  1
 35 37  1  0
 37 38  2  0
 38 39  1  0
 39 40  2  0
 40 41  1  0
 41 42  1  0
 42 43  1  1
 42 44  1  0
 44 45  1  0
 45 46  2  0
 45 47  1  0
 47 48  1  0
 48 49  1  1
 48  3  1  0
 26  6  1  0
 21 12  1  0
M  END
>  <ChEMBL_IDs>  (175) 
nan

>  <target_organism>  (175) 
nan

>  <target_molecule_pref_name>  (175) 
nan

>  <# Known Targets>  (175) 
nan

>  <Known Targets>  (175) 
nan

>  <smiles>  (175) 
CO[C@@H]1[C@@H](O[C@@H]2O[C@H](C)[C@@H](O[C@H]3C[C@@](C)(O)[C@@H](O)[C@H](C)O3)[C@H](N(C)C)[C@H]2O)[C@@H](CC=O)C[C@@H](C)[C@@H](O)/C=C/C=C/C[C@@H](C)OC(=O)C[C@H]1O

$$$$

     RDKit          2D

 49 51  0  0  0  0  0  0  0  0999 V2000
    6.0944   -1.2990    0.0000 C   0  0  0  0  0  0  0  0  0  0  0  0
    5.3444    0.0000    0.0000 O   0  0  0  0  0  0  0  0  0  0  0  0
    3.8444    0.0000    0.0000 C   0  0  0  0  0  0  0  0  0  0  0  0
    3.5517   -1.4712    0.0000 C   0  0  0  0  0  0  0  0  0  0  0  0
    4.9376   -2.0452    0.0000 O   0  0  0  0  0  0  0  0  0  0  0  0
    2.7184   -2.7184    0.0000 C   0  0  0  0  0  0  0  0  0  0  0  0
    1.4712   -3.5517    0.0000 C   0  0  0  0  0  0  0  0  0  0  0  0
    2.0452   -4.9376    0.0000 O   0  0  0  0  0  0  0  0  0  0  0  0
   -0.0000   -3.8444    0.0000 O   0  0  0  0  0  0  0  0  0  0  0  0
   -1.4712   -3.5517    0.0000 C   0  0  0  0  0  0  0  0  0  0  0  0
   -2.0452   -4.9376    0.0000 C   0  0  0  0  0  0  0  0  0  0  0  0
   -2.7184   -2.7184    0.0000 C   0  0  0  0  0  0  0  0  0  0  0  0
   -3.5517   -1.4712    0.0000 C   0  0  0  0  0  0  0  0  0  0  0  0
   -3.8444    0.0000    0.0000 C   0  0  0  0  0  0  0  0  0  0  0  0
   -3.5517    1.4712    0.0000 C   0  0  0  0  0  0  0  0  0  0  0  0
   -2.7184    2.7184    0.0000 C   0  0  0  0  0  0  0  0  0  0  0  0
   -1.4712    3.5517    0.0000 C   0  0  0  0  0  0  0  0  0  0  0  0
   -2.0452    4.9376    0.0000 O   0  0  0  0  0  0  0  0  0  0  0  0
    0.0000    3.8444    0.0000 C   0  0  0  0  0  0  0  0  0  0  0  0
    0.0000    5.3444    0.0000 C   0  0  0  0  0  0  0  0  0  0  0  0
    1.4712    3.5517    0.0000 C   0  0  0  0  0  0  0  0  0  0  0  0
    2.7184    2.7184    0.0000 C   0  0  0  0  0  0  0  0  0  0  0  0
    3.7790    3.7790    0.0000 C   0  0  0  0  0  0  0  0  0  0  0  0
    5.2279    3.3908    0.0000 C   0  0  0  0  0  0  0  0  0  0  0  0
    6.2886    4.4515    0.0000 O   0  0  0  0  0  0  0  0  0  0  0  0
    3.5517    1.4712    0.0000 C   0  0  0  0  0  0  0  0  0  0  0  0
    4.9376    2.0452    0.0000 O   0  0  0  0  0  0  0  0  0  0  0  0
    6.1276    1.1321    0.0000 C   0  0  0  0  0  0  0  0  0  0  0  0
    5.9318   -0.3551    0.0000 O   0  0  0  0  0  0  0  0  0  0  0  0
    7.1218   -1.2682    0.0000 C   0  0  0  0  0  0  0  0  0  0  0  0
    6.9260   -2.7554    0.0000 C   0  0  0  0  0  0  0  0  0  0  0  0
    8.5076   -0.6942    0.0000 C   0  0  0  0  0  0  0  0  0  0  0  0
    9.6977   -1.6074    0.0000 O   0  0  0  0  0  0  0  0  0  0  0  0
   11.0835   -1.0333    0.0000 C   0  0  0  0  0  0  0  0  0  0  0  0
   12.2735   -1.9465    0.0000 C   0  0  0  0  0  0  0  0  0  0  0  0
   13.6593   -1.3725    0.0000 C   0  0  0  0  0  0  0  0  0  0  0  0
   15.1579   -1.3070    0.0000 C   0  0  0  0  0  0  0  0  0  0  0  0
   13.9840   -2.8369    0.0000 O   0  0  0  0  0  0  0  0  0  0  0  0
   13.8551    0.1147    0.0000 C   0  0  0  0  0  0  0  0  0  0  0  0
   15.2410    0.6887    0.0000 O   0  0  0  0  0  0  0  0  0  0  0  0
   12.6651    1.0279    0.0000 C   0  0  0  0  0  0  0  0  0  0  0  0
   12.8609    2.5150    0.0000 C   0  0  0  0  0  0  0  0  0  0  0  0
   11.2793    0.4538    0.0000 O   0  0  0  0  0  0  0  0  0  0  0  0
    8.7034    0.7929    0.0000 C   0  0  0  0  0  0  0  0  0  0  0  0
   10.0893    1.3670    0.0000 N   0  0  0  0  0  0  0  0  0  0  0  0
   10.2850    2.8541    0.0000 C   0  0  0  0  0  0  0  0  0  0  0  0
   11.4649    0.7689    0.0000 C   0  0  0  0  0  0  0  0  0  0  0  0
    7.5134    1.7061    0.0000 C   0  0  0  0  0  0  0  0  0  0  0  0
    7.7092    3.1933    0.0000 O   0  0  0  0  0  0  0  0  0  0  0  0
  1  2  1  0
  2  3  1  0
  3  4  1  0
  4  5  1  0
  4  6  1  0
  6  7  1  0
  7  8  2  0
  7  9  1  0
  9 10  1  0
 10 11  1  0
 10 12  1  0
 12 13  1  0
 13 14  2  0
 14 15  1  0
 15 16  2  0
 16 17  1  0
 17 18  1  0
 17 19  1  0
 19 20  1  0
 19 21  1  0
 21 22  1  0
 22 23  1  0
 23 24  1  0
 24 25  2  0
 22 26  1  0
 26 27  1  0
 27 28  1  0
 28 29  1  0
 29 30  1  0
 30 31  1  0
 30 32  1  0
 32 33  1  0
 33 34  1  0
 34 35  1  0
 35 36  1  0
 36 37  1  0
 36 38  1  0
 36 39  1  0
 39 40  1  0
 39 41  1  0
 41 42  1  0
 41 43  1  0
 32 44  1  0
 44 45  1  0
 45 46  1  0
 45 47  1  0
 44 48  1  0
 48 49  1  0
 26  3  1  0
 48 28  1  0
 43 34  1  0
M  END
>  <ChEMBL_IDs>  (176) 
nan

>  <target_organism>  (176) 
nan

>  <target_molecule_pref_name>  (176) 
nan

>  <# Known Targets>  (176) 
nan

>  <Known Targets>  (176) 
nan

>  <smiles>  (176) 
COC1C(O)CC(=O)OC(C)C/C=C\C=C/C(O)C(C)CC(CC=O)C1OC1OC(C)C(OC2CC(C)(O)C(O)C(C)O2)C(N(C)C)C1O

$$$$

     RDKit          2D

 49 51  0  0  0  0  0  0  0  0999 V2000
    6.0944   -1.2990    0.0000 C   0  0  0  0  0  0  0  0  0  0  0  0
    5.3444    0.0000    0.0000 O   0  0  0  0  0  0  0  0  0  0  0  0
    3.8444    0.0000    0.0000 C   0  0  0  0  0  0  0  0  0  0  0  0
    3.5517   -1.4712    0.0000 C   0  0  0  0  0  0  0  0  0  0  0  0
    4.9376   -2.0452    0.0000 O   0  0  0  0  0  0  0  0  0  0  0  0
    2.7184   -2.7184    0.0000 C   0  0  0  0  0  0  0  0  0  0  0  0
    1.4712   -3.5517    0.0000 C   0  0  0  0  0  0  0  0  0  0  0  0
    2.0452   -4.9376    0.0000 O   0  0  0  0  0  0  0  0  0  0  0  0
   -0.0000   -3.8444    0.0000 O   0  0  0  0  0  0  0  0  0  0  0  0
   -1.4712   -3.5517    0.0000 C   0  0  0  0  0  0  0  0  0  0  0  0
   -2.0452   -4.9376    0.0000 C   0  0  0  0  0  0  0  0  0  0  0  0
   -2.7184   -2.7184    0.0000 C   0  0  0  0  0  0  0  0  0  0  0  0
   -3.5517   -1.4712    0.0000 C   0  0  0  0  0  0  0  0  0  0  0  0
   -3.8444    0.0000    0.0000 C   0  0  0  0  0  0  0  0  0  0  0  0
   -3.5517    1.4712    0.0000 C   0  0  0  0  0  0  0  0  0  0  0  0
   -2.7184    2.7184    0.0000 C   0  0  0  0  0  0  0  0  0  0  0  0
   -1.4712    3.5517    0.0000 C   0  0  0  0  0  0  0  0  0  0  0  0
   -2.0452    4.9376    0.0000 O   0  0  0  0  0  0  0  0  0  0  0  0
    0.0000    3.8444    0.0000 C   0  0  0  0  0  0  0  0  0  0  0  0
    0.0000    5.3444    0.0000 C   0  0  0  0  0  0  0  0  0  0  0  0
    1.4712    3.5517    0.0000 C   0  0  0  0  0  0  0  0  0  0  0  0
    2.7184    2.7184    0.0000 C   0  0  0  0  0  0  0  0  0  0  0  0
    3.7790    3.7790    0.0000 C   0  0  0  0  0  0  0  0  0  0  0  0
    5.2279    3.3908    0.0000 C   0  0  0  0  0  0  0  0  0  0  0  0
    6.2886    4.4515    0.0000 O   0  0  0  0  0  0  0  0  0  0  0  0
    3.5517    1.4712    0.0000 C   0  0  0  0  0  0  0  0  0  0  0  0
    4.9376    2.0452    0.0000 O   0  0  0  0  0  0  0  0  0  0  0  0
    6.1276    1.1321    0.0000 C   0  0  0  0  0  0  0  0  0  0  0  0
    5.9318   -0.3551    0.0000 O   0  0  0  0  0  0  0  0  0  0  0  0
    7.1218   -1.2682    0.0000 C   0  0  0  0  0  0  0  0  0  0  0  0
    6.9260   -2.7554    0.0000 C   0  0  0  0  0  0  0  0  0  0  0  0
    8.5076   -0.6942    0.0000 C   0  0  0  0  0  0  0  0  0  0  0  0
    9.6977   -1.6074    0.0000 O   0  0  0  0  0  0  0  0  0  0  0  0
   11.0835   -1.0333    0.0000 C   0  0  0  0  0  0  0  0  0  0  0  0
   12.2735   -1.9465    0.0000 C   0  0  0  0  0  0  0  0  0  0  0  0
   13.6593   -1.3725    0.0000 C   0  0  0  0  0  0  0  0  0  0  0  0
   15.1579   -1.3070    0.0000 C   0  0  0  0  0  0  0  0  0  0  0  0
   13.9840   -2.8369    0.0000 O   0  0  0  0  0  0  0  0  0  0  0  0
   13.8551    0.1147    0.0000 C   0  0  0  0  0  0  0  0  0  0  0  0
   15.2410    0.6887    0.0000 O   0  0  0  0  0  0  0  0  0  0  0  0
   12.6651    1.0279    0.0000 C   0  0  0  0  0  0  0  0  0  0  0  0
   12.8609    2.5150    0.0000 C   0  0  0  0  0  0  0  0  0  0  0  0
   11.2793    0.4538    0.0000 O   0  0  0  0  0  0  0  0  0  0  0  0
    8.7034    0.7929    0.0000 C   0  0  0  0  0  0  0  0  0  0  0  0
   10.0893    1.3670    0.0000 N   0  0  0  0  0  0  0  0  0  0  0  0
   10.2850    2.8541    0.0000 C   0  0  0  0  0  0  0  0  0  0  0  0
   11.4649    0.7689    0.0000 C   0  0  0  0  0  0  0  0  0  0  0  0
    7.5134    1.7061    0.0000 C   0  0  0  0  0  0  0  0  0  0  0  0
    7.7092    3.1933    0.0000 O   0  0  0  0  0  0  0  0  0  0  0  0
  1  2  1  0
  2  3  1  0
  3  4  1  0
  4  5  1  0
  4  6  1  0
  6  7  1  0
  7  8  2  0
  7  9  1  0
  9 10  1  0
 10 11  1  0
 10 12  1  0
 12 13  1  0
 13 14  2  0
 14 15  1  0
 15 16  2  0
 16 17  1  0
 17 18  1  0
 17 19  1  0
 19 20  1  0
 19 21  1  0
 21 22  1  0
 22 23  1  0
 23 24  1  0
 24 25  2  0
 22 26  1  0
 26 27  1  0
 27 28  1  0
 28 29  1  0
 29 30  1  0
 30 31  1  0
 30 32  1  0
 32 33  1  0
 33 34  1  0
 34 35  1  0
 35 36  1  0
 36 37  1  0
 36 38  1  0
 36 39  1  0
 39 40  1  0
 39 41  1  0
 41 42  1  0
 41 43  1  0
 32 44  1  0
 44 45  1  0
 45 46  1  0
 45 47  1  0
 44 48  1  0
 48 49  1  0
 26  3  1  0
 48 28  1  0
 43 34  1  0
M  END
>  <ChEMBL_IDs>  (177) 
nan

>  <target_organism>  (177) 
nan

>  <target_molecule_pref_name>  (177) 
nan

>  <# Known Targets>  (177) 
nan

>  <Known Targets>  (177) 
nan

>  <smiles>  (177) 
COC1C(O)CC(=O)OC(C)C/C=C\C=C/C(O)C(C)CC(CC=O)C1OC1OC(C)C(OC2CC(C)(O)C(O)C(C)O2)C(N(C)C)C1O

$$$$

     RDKit          2D

 47 49  0  0  0  0  0  0  0  0999 V2000
    5.6205   -1.2990    0.0000 C   0  0  0  0  0  0  0  0  0  0  0  0
    4.8705    0.0000    0.0000 C   0  0  0  0  0  0  0  0  0  0  0  0
    3.3705    0.0000    0.0000 C   0  0  0  0  0  0  0  0  0  0  0  0
    3.0367   -1.4624    0.0000 O   0  0  0  0  0  0  0  0  0  0  0  0
    2.1015   -2.6351    0.0000 C   0  0  0  0  0  0  0  0  0  0  0  0
    3.0367   -3.8079    0.0000 O   0  0  0  0  0  0  0  0  0  0  0  0
    0.7500   -3.2860    0.0000 C   0  0  0  0  0  0  0  0  0  0  0  0
    1.3600   -4.4903    0.0000 C   0  0  0  0  0  0  0  0  0  0  0  0
   -0.7500   -3.2860    0.0000 C   0  0  0  0  0  0  0  0  0  0  0  0
   -1.0838   -4.7484    0.0000 O   0  0  0  0  0  0  0  0  0  0  0  0
    0.0158   -5.7686    0.0000 C   0  0  0  0  0  0  0  0  0  0  0  0
   -0.3180   -7.2310    0.0000 C   0  0  0  0  0  0  0  0  0  0  0  0
    0.7816   -8.2513    0.0000 C   0  0  0  0  0  0  0  0  0  0  0  0
    2.2150   -7.8091    0.0000 C   0  0  0  0  0  0  0  0  0  0  0  0
    2.5487   -6.3467    0.0000 C   0  0  0  0  0  0  0  0  0  0  0  0
    1.4492   -5.3265    0.0000 O   0  0  0  0  0  0  0  0  0  0  0  0
   -2.1015   -2.6351    0.0000 C   0  0  0  0  0  0  0  0  0  0  0  0
   -3.0367   -3.8079    0.0000 C   0  0  0  0  0  0  0  0  0  0  0  0
   -3.0367   -1.4624    0.0000 C   0  0  0  0  0  0  0  0  0  0  0  0
   -4.3881   -2.1132    0.0000 O   0  0  0  0  0  0  0  0  0  0  0  0
   -5.6275   -1.2682    0.0000 C   0  0  0  0  0  0  0  0  0  0  0  0
   -5.5154    0.2276    0.0000 O   0  0  0  0  0  0  0  0  0  0  0  0
   -6.7548    1.0725    0.0000 C   0  0  0  0  0  0  0  0  0  0  0  0
   -6.6427    2.5684    0.0000 C   0  0  0  0  0  0  0  0  0  0  0  0
   -8.1062    0.4217    0.0000 C   0  0  0  0  0  0  0  0  0  0  0  0
   -8.2183   -1.0741    0.0000 C   0  0  0  0  0  0  0  0  0  0  0  0
   -9.5698   -1.7249    0.0000 N   0  0  0  0  0  0  0  0  0  0  0  0
  -10.8091   -0.8799    0.0000 C   0  0  0  0  0  0  0  0  0  0  0  0
   -9.6819   -3.2207    0.0000 C   0  0  0  0  0  0  0  0  0  0  0  0
   -6.9790   -1.9191    0.0000 C   0  0  0  0  0  0  0  0  0  0  0  0
   -7.0910   -3.4149    0.0000 O   0  0  0  0  0  0  0  0  0  0  0  0
   -3.3705    0.0000    0.0000 C   0  0  0  0  0  0  0  0  0  0  0  0
   -4.6098   -0.8450    0.0000 C   0  0  0  0  0  0  0  0  0  0  0  0
   -4.6098    0.8450    0.0000 O   0  0  0  0  0  0  0  0  0  0  0  0
   -5.3904    0.6832    0.0000 C   0  0  0  0  0  0  0  0  0  0  0  0
   -3.0367    1.4624    0.0000 C   0  0  0  0  0  0  0  0  0  0  0  0
   -2.1015    2.6351    0.0000 C   0  0  0  0  0  0  0  0  0  0  0  0
   -3.0367    3.8079    0.0000 C   0  0  0  0  0  0  0  0  0  0  0  0
   -0.7500    3.2860    0.0000 C   0  0  0  0  0  0  0  0  0  0  0  0
   -1.0838    4.7484    0.0000 O   0  0  0  0  0  0  0  0  0  0  0  0
    0.7500    3.2860    0.0000 C   0  0  0  0  0  0  0  0  0  0  0  0
    1.0838    4.7484    0.0000 C   0  0  0  0  0  0  0  0  0  0  0  0
    2.1015    2.6351    0.0000 C   0  0  0  0  0  0  0  0  0  0  0  0
    3.0367    3.8079    0.0000 O   0  0  0  0  0  0  0  0  0  0  0  0
    3.0367    1.4624    0.0000 C   0  0  0  0  0  0  0  0  0  0  0  0
    3.7867    2.7614    0.0000 C   0  0  0  0  0  0  0  0  0  0  0  0
    4.5199    1.2388    0.0000 O   0  0  0  0  0  0  0  0  0  0  0  0
  1  2  1  0
  3  2  1  1
  3  4  1  0
  4  5  1  0
  5  6  2  0
  5  7  1  0
  7  8  1  6
  7  9  1  0
  9 10  1  1
 10 11  1  0
 11 12  1  0
 12 13  1  0
 13 14  1  0
 14 15  1  0
 15 16  1  0
  9 17  1  0
 17 18  1  6
 17 19  1  0
 19 20  1  1
 20 21  1  0
 21 22  1  0
 22 23  1  0
 23 24  1  1
 23 25  1  0
 25 26  1  0
 26 27  1  1
 27 28  1  0
 27 29  1  0
 26 30  1  0
 30 31  1  0
 19 32  1  0
 32 33  1  6
 32 34  1  0
 34 35  1  0
 32 36  1  0
 36 37  1  0
 37 38  1  1
 37 39  1  0
 39 40  2  0
 39 41  1  0
 41 42  1  6
 41 43  1  0
 43 44  1  1
 43 45  1  0
 45 46  1  1
 45 47  1  0
 45  3  1  0
 16 11  1  0
 30 21  1  0
M  END
>  <ChEMBL_IDs>  (178) 
CHEMBL131716

>  <target_organism>  (178) 
nan

>  <target_molecule_pref_name>  (178) 
nan

>  <# Known Targets>  (178) 
nan

>  <Known Targets>  (178) 
nan

>  <smiles>  (178) 
CC[C@H]1OC(=O)[C@H](C)[C@@H](OC2CCCCO2)[C@H](C)[C@@H](OC2O[C@H](C)C[C@H](N(C)C)C2O)[C@@](C)(OC)C[C@@H](C)C(=O)[C@H](C)[C@@H](O)[C@]1(C)O

$$$$

     RDKit          2D

 47 49  0  0  0  0  0  0  0  0999 V2000
    2.2457   -8.2906    0.0000 C   0  0  0  0  0  0  0  0  0  0  0  0
    2.1336   -6.7948    0.0000 O   0  0  0  0  0  0  0  0  0  0  0  0
    3.3730   -5.9498    0.0000 C   0  0  0  0  0  0  0  0  0  0  0  0
    3.2609   -4.4540    0.0000 C   0  0  0  0  0  0  0  0  0  0  0  0
    4.5002   -3.6090    0.0000 C   0  0  0  0  0  0  0  0  0  0  0  0
    4.3881   -2.1132    0.0000 O   0  0  0  0  0  0  0  0  0  0  0  0
    3.0367   -1.4624    0.0000 C   0  0  0  0  0  0  0  0  0  0  0  0
    3.3705    0.0000    0.0000 C   0  0  0  0  0  0  0  0  0  0  0  0
    4.8705    0.0000    0.0000 C   0  0  0  0  0  0  0  0  0  0  0  0
    3.0367    1.4624    0.0000 C   0  0  0  0  0  0  0  0  0  0  0  0
    4.3881    2.1132    0.0000 O   0  0  0  0  0  0  0  0  0  0  0  0
    2.1015    2.6351    0.0000 O   0  0  0  0  0  0  0  0  0  0  0  0
    0.7500    3.2860    0.0000 C   0  0  0  0  0  0  0  0  0  0  0  0
    1.0838    4.7484    0.0000 C   0  0  0  0  0  0  0  0  0  0  0  0
   -0.7500    3.2860    0.0000 C   0  0  0  0  0  0  0  0  0  0  0  0
   -1.0838    4.7484    0.0000 C   0  0  0  0  0  0  0  0  0  0  0  0
   -2.1015    2.6351    0.0000 C   0  0  0  0  0  0  0  0  0  0  0  0
   -3.0367    3.8079    0.0000 O   0  0  0  0  0  0  0  0  0  0  0  0
   -3.0367    1.4624    0.0000 C   0  0  0  0  0  0  0  0  0  0  0  0
   -4.3881    2.1132    0.0000 C   0  0  0  0  0  0  0  0  0  0  0  0
   -3.3705    0.0000    0.0000 C   0  0  0  0  0  0  0  0  0  0  0  0
   -4.8705    0.0000    0.0000 O   0  0  0  0  0  0  0  0  0  0  0  0
   -3.0367   -1.4624    0.0000 C   0  0  0  0  0  0  0  0  0  0  0  0
   -4.3881   -2.1132    0.0000 C   0  0  0  0  0  0  0  0  0  0  0  0
   -2.1015   -2.6351    0.0000 C   0  0  0  0  0  0  0  0  0  0  0  0
   -0.7500   -3.2860    0.0000 C   0  0  0  0  0  0  0  0  0  0  0  0
   -1.4277   -4.6241    0.0000 C   0  0  0  0  0  0  0  0  0  0  0  0
    0.7500   -3.2860    0.0000 C   0  0  0  0  0  0  0  0  0  0  0  0
    1.0838   -4.7484    0.0000 O   0  0  0  0  0  0  0  0  0  0  0  0
   -0.0158   -5.7686    0.0000 C   0  0  0  0  0  0  0  0  0  0  0  0
    0.3180   -7.2310    0.0000 O   0  0  0  0  0  0  0  0  0  0  0  0
   -0.7816   -8.2513    0.0000 C   0  0  0  0  0  0  0  0  0  0  0  0
   -0.4478   -9.7137    0.0000 C   0  0  0  0  0  0  0  0  0  0  0  0
   -2.2150   -7.8091    0.0000 C   0  0  0  0  0  0  0  0  0  0  0  0
   -2.5487   -6.3467    0.0000 C   0  0  0  0  0  0  0  0  0  0  0  0
   -3.9821   -5.9046    0.0000 N   0  0  0  0  0  0  0  0  0  0  0  0
   -5.0817   -6.9249    0.0000 C   0  0  0  0  0  0  0  0  0  0  0  0
   -4.3159   -4.4422    0.0000 C   0  0  0  0  0  0  0  0  0  0  0  0
   -1.4492   -5.3265    0.0000 C   0  0  0  0  0  0  0  0  0  0  0  0
   -1.7829   -3.8641    0.0000 O   0  0  0  0  0  0  0  0  0  0  0  0
    2.1015   -2.6351    0.0000 C   0  0  0  0  0  0  0  0  0  0  0  0
    2.7251   -3.9993    0.0000 C   0  0  0  0  0  0  0  0  0  0  0  0
    5.8517   -4.2598    0.0000 O   0  0  0  0  0  0  0  0  0  0  0  0
    5.9638   -5.7557    0.0000 C   0  0  0  0  0  0  0  0  0  0  0  0
    7.3152   -6.4065    0.0000 C   0  0  0  0  0  0  0  0  0  0  0  0
    4.7244   -6.6006    0.0000 C   0  0  0  0  0  0  0  0  0  0  0  0
    4.8365   -8.0964    0.0000 O   0  0  0  0  0  0  0  0  0  0  0  0
  1  2  1  0
  3  2  1  1
  3  4  1  0
  4  5  1  0
  5  6  1  6
  7  6  1  1
  7  8  1  0
  8  9  1  6
  8 10  1  0
 10 11  2  0
 10 12  1  0
 12 13  1  0
 13 14  1  1
 13 15  1  0
 15 16  1  1
 15 17  1  0
 17 18  1  1
 17 19  1  0
 19 20  1  6
 19 21  1  0
 21 22  2  0
 21 23  1  0
 23 24  1  1
 23 25  1  0
 25 26  1  0
 26 27  1  1
 26 28  1  0
 28 29  1  1
 30 29  1  6
 30 31  1  0
 31 32  1  0
 32 33  1  6
 32 34  1  0
 34 35  1  0
 35 36  1  6
 36 37  1  0
 36 38  1  0
 35 39  1  0
 39 40  1  1
 28 41  1  0
 41 42  1  6
  5 43  1  0
 43 44  1  0
 44 45  1  1
 44 46  1  0
 46 47  1  6
 46  3  1  0
 41  7  1  0
 39 30  1  0
M  END
>  <ChEMBL_IDs>  (179) 
CHEMBL1957028

>  <target_organism>  (179) 
Staphylococcus aureus

>  <target_molecule_pref_name>  (179) 
nan

>  <# Known Targets>  (179) 
nan

>  <Known Targets>  (179) 
nan

>  <smiles>  (179) 
CO[C@H]1C[C@H](O[C@@H]2[C@@H](C)C(=O)O[C@H](C)[C@H](C)[C@H](O)[C@@H](C)C(=O)[C@H](C)C[C@H](C)[C@H](O[C@@H]3O[C@H](C)C[C@H](N(C)C)[C@H]3O)[C@H]2C)O[C@@H](C)[C@@H]1O

$$$$

     RDKit          2D

 47 49  0  0  0  0  0  0  0  0999 V2000
    2.2457   -8.2906    0.0000 C   0  0  0  0  0  0  0  0  0  0  0  0
    2.1336   -6.7948    0.0000 O   0  0  0  0  0  0  0  0  0  0  0  0
    3.3730   -5.9498    0.0000 C   0  0  0  0  0  0  0  0  0  0  0  0
    3.2609   -4.4540    0.0000 C   0  0  0  0  0  0  0  0  0  0  0  0
    4.5002   -3.6090    0.0000 C   0  0  0  0  0  0  0  0  0  0  0  0
    4.3881   -2.1132    0.0000 O   0  0  0  0  0  0  0  0  0  0  0  0
    3.0367   -1.4624    0.0000 C   0  0  0  0  0  0  0  0  0  0  0  0
    3.3705    0.0000    0.0000 C   0  0  0  0  0  0  0  0  0  0  0  0
    4.8705    0.0000    0.0000 C   0  0  0  0  0  0  0  0  0  0  0  0
    3.0367    1.4624    0.0000 C   0  0  0  0  0  0  0  0  0  0  0  0
    4.3881    2.1132    0.0000 O   0  0  0  0  0  0  0  0  0  0  0  0
    2.1015    2.6351    0.0000 O   0  0  0  0  0  0  0  0  0  0  0  0
    0.7500    3.2860    0.0000 C   0  0  0  0  0  0  0  0  0  0  0  0
    1.0838    4.7484    0.0000 C   0  0  0  0  0  0  0  0  0  0  0  0
   -0.7500    3.2860    0.0000 C   0  0  0  0  0  0  0  0  0  0  0  0
   -1.0838    4.7484    0.0000 C   0  0  0  0  0  0  0  0  0  0  0  0
   -2.1015    2.6351    0.0000 C   0  0  0  0  0  0  0  0  0  0  0  0
   -3.0367    3.8079    0.0000 O   0  0  0  0  0  0  0  0  0  0  0  0
   -3.0367    1.4624    0.0000 C   0  0  0  0  0  0  0  0  0  0  0  0
   -4.3881    2.1132    0.0000 C   0  0  0  0  0  0  0  0  0  0  0  0
   -3.3705    0.0000    0.0000 C   0  0  0  0  0  0  0  0  0  0  0  0
   -4.8705    0.0000    0.0000 O   0  0  0  0  0  0  0  0  0  0  0  0
   -3.0367   -1.4624    0.0000 C   0  0  0  0  0  0  0  0  0  0  0  0
   -4.3881   -2.1132    0.0000 C   0  0  0  0  0  0  0  0  0  0  0  0
   -2.1015   -2.6351    0.0000 C   0  0  0  0  0  0  0  0  0  0  0  0
   -0.7500   -3.2860    0.0000 C   0  0  0  0  0  0  0  0  0  0  0  0
   -1.4277   -4.6241    0.0000 C   0  0  0  0  0  0  0  0  0  0  0  0
    0.7500   -3.2860    0.0000 C   0  0  0  0  0  0  0  0  0  0  0  0
    1.0838   -4.7484    0.0000 O   0  0  0  0  0  0  0  0  0  0  0  0
   -0.0158   -5.7686    0.0000 C   0  0  0  0  0  0  0  0  0  0  0  0
    0.3180   -7.2310    0.0000 O   0  0  0  0  0  0  0  0  0  0  0  0
   -0.7816   -8.2513    0.0000 C   0  0  0  0  0  0  0  0  0  0  0  0
   -0.4478   -9.7137    0.0000 C   0  0  0  0  0  0  0  0  0  0  0  0
   -2.2150   -7.8091    0.0000 C   0  0  0  0  0  0  0  0  0  0  0  0
   -2.5487   -6.3467    0.0000 C   0  0  0  0  0  0  0  0  0  0  0  0
   -3.9821   -5.9046    0.0000 N   0  0  0  0  0  0  0  0  0  0  0  0
   -5.0817   -6.9249    0.0000 C   0  0  0  0  0  0  0  0  0  0  0  0
   -4.3159   -4.4422    0.0000 C   0  0  0  0  0  0  0  0  0  0  0  0
   -1.4492   -5.3265    0.0000 C   0  0  0  0  0  0  0  0  0  0  0  0
   -1.7829   -3.8641    0.0000 O   0  0  0  0  0  0  0  0  0  0  0  0
    2.1015   -2.6351    0.0000 C   0  0  0  0  0  0  0  0  0  0  0  0
    2.7251   -3.9993    0.0000 C   0  0  0  0  0  0  0  0  0  0  0  0
    5.8517   -4.2598    0.0000 O   0  0  0  0  0  0  0  0  0  0  0  0
    5.9638   -5.7557    0.0000 C   0  0  0  0  0  0  0  0  0  0  0  0
    7.3152   -6.4065    0.0000 C   0  0  0  0  0  0  0  0  0  0  0  0
    4.7244   -6.6006    0.0000 C   0  0  0  0  0  0  0  0  0  0  0  0
    4.8365   -8.0964    0.0000 O   0  0  0  0  0  0  0  0  0  0  0  0
  1  2  1  0
  3  2  1  1
  3  4  1  0
  4  5  1  0
  5  6  1  6
  7  6  1  1
  7  8  1  0
  8  9  1  6
  8 10  1  0
 10 11  2  0
 10 12  1  0
 12 13  1  0
 13 14  1  1
 13 15  1  0
 15 16  1  1
 15 17  1  0
 17 18  1  1
 17 19  1  0
 19 20  1  6
 19 21  1  0
 21 22  2  0
 21 23  1  0
 23 24  1  6
 23 25  1  0
 25 26  1  0
 26 27  1  1
 26 28  1  0
 28 29  1  1
 30 29  1  6
 30 31  1  0
 31 32  1  0
 32 33  1  6
 32 34  1  0
 34 35  1  0
 35 36  1  6
 36 37  1  0
 36 38  1  0
 35 39  1  0
 39 40  1  1
 28 41  1  0
 41 42  1  6
  5 43  1  0
 43 44  1  0
 44 45  1  1
 44 46  1  0
 46 47  1  6
 46  3  1  0
 41  7  1  0
 39 30  1  0
M  END
>  <ChEMBL_IDs>  (180) 
CHEMBL1957031

>  <target_organism>  (180) 
Staphylococcus aureus

>  <target_molecule_pref_name>  (180) 
nan

>  <# Known Targets>  (180) 
nan

>  <Known Targets>  (180) 
nan

>  <smiles>  (180) 
CO[C@H]1C[C@H](O[C@@H]2[C@@H](C)C(=O)O[C@H](C)[C@H](C)[C@H](O)[C@@H](C)C(=O)[C@@H](C)C[C@H](C)[C@H](O[C@@H]3O[C@H](C)C[C@H](N(C)C)[C@H]3O)[C@H]2C)O[C@@H](C)[C@@H]1O

$$$$

     RDKit          2D

 47 49  0  0  0  0  0  0  0  0999 V2000
    4.8705    0.0000    0.0000 C   0  0  0  0  0  0  0  0  0  0  0  0
    3.3705    0.0000    0.0000 C   0  0  0  0  0  0  0  0  0  0  0  0
    3.0367   -1.4624    0.0000 C   0  0  0  0  0  0  0  0  0  0  0  0
    2.1015   -2.6351    0.0000 C   0  0  0  0  0  0  0  0  0  0  0  0
    3.1735   -3.4556    0.0000 C   0  0  0  0  0  0  0  0  0  0  0  0
    0.7500   -3.2860    0.0000 C   0  0  0  0  0  0  0  0  0  0  0  0
    1.0838   -4.7484    0.0000 O   0  0  0  0  0  0  0  0  0  0  0  0
    2.5171   -5.1905    0.0000 C   0  0  0  0  0  0  0  0  0  0  0  0
    3.6167   -4.1702    0.0000 O   0  0  0  0  0  0  0  0  0  0  0  0
    5.0501   -4.6124    0.0000 C   0  0  0  0  0  0  0  0  0  0  0  0
    6.1497   -3.5921    0.0000 C   0  0  0  0  0  0  0  0  0  0  0  0
    5.3839   -6.0748    0.0000 C   0  0  0  0  0  0  0  0  0  0  0  0
    4.2843   -7.0950    0.0000 C   0  0  0  0  0  0  0  0  0  0  0  0
    4.6181   -8.5574    0.0000 N   0  0  0  0  0  0  0  0  0  0  0  0
    6.0514   -8.9995    0.0000 C   0  0  0  0  0  0  0  0  0  0  0  0
    3.5185   -9.5777    0.0000 C   0  0  0  0  0  0  0  0  0  0  0  0
    2.8509   -6.6529    0.0000 C   0  0  0  0  0  0  0  0  0  0  0  0
    1.7513   -7.6731    0.0000 O   0  0  0  0  0  0  0  0  0  0  0  0
   -0.7500   -3.2860    0.0000 C   0  0  0  0  0  0  0  0  0  0  0  0
   -1.0838   -4.7484    0.0000 C   0  0  0  0  0  0  0  0  0  0  0  0
   -2.1015   -2.6351    0.0000 C   0  0  0  0  0  0  0  0  0  0  0  0
   -3.0367   -3.8079    0.0000 O   0  0  0  0  0  0  0  0  0  0  0  0
   -4.5199   -3.5843    0.0000 C   0  0  0  0  0  0  0  0  0  0  0  0
   -5.0679   -2.1880    0.0000 C   0  0  0  0  0  0  0  0  0  0  0  0
   -6.5512   -1.9644    0.0000 C   0  0  0  0  0  0  0  0  0  0  0  0
   -7.0992   -0.5681    0.0000 O   0  0  0  0  0  0  0  0  0  0  0  0
   -8.5824   -0.3446    0.0000 C   0  0  0  0  0  0  0  0  0  0  0  0
   -7.4864   -3.1372    0.0000 C   0  0  0  0  0  0  0  0  0  0  0  0
   -8.9697   -2.9136    0.0000 O   0  0  0  0  0  0  0  0  0  0  0  0
   -6.9384   -4.5335    0.0000 C   0  0  0  0  0  0  0  0  0  0  0  0
   -7.8736   -5.7063    0.0000 C   0  0  0  0  0  0  0  0  0  0  0  0
   -5.4552   -4.7571    0.0000 O   0  0  0  0  0  0  0  0  0  0  0  0
   -3.0367   -1.4624    0.0000 C   0  0  0  0  0  0  0  0  0  0  0  0
   -4.5055   -1.7669    0.0000 C   0  0  0  0  0  0  0  0  0  0  0  0
   -3.3705    0.0000    0.0000 C   0  0  0  0  0  0  0  0  0  0  0  0
   -4.8705    0.0000    0.0000 O   0  0  0  0  0  0  0  0  0  0  0  0
   -3.0367    1.4624    0.0000 O   0  0  0  0  0  0  0  0  0  0  0  0
   -2.1015    2.6351    0.0000 C   0  0  0  0  0  0  0  0  0  0  0  0
   -3.0367    3.8079    0.0000 C   0  0  0  0  0  0  0  0  0  0  0  0
   -0.7500    3.2860    0.0000 C   0  0  0  0  0  0  0  0  0  0  0  0
   -1.0838    4.7484    0.0000 C   0  0  0  0  0  0  0  0  0  0  0  0
    0.7500    3.2860    0.0000 C   0  0  0  0  0  0  0  0  0  0  0  0
    1.0838    4.7484    0.0000 O   0  0  0  0  0  0  0  0  0  0  0  0
    2.1015    2.6351    0.0000 C   0  0  0  0  0  0  0  0  0  0  0  0
    3.0367    3.8079    0.0000 C   0  0  0  0  0  0  0  0  0  0  0  0
    3.0367    1.4624    0.0000 C   0  0  0  0  0  0  0  0  0  0  0  0
    4.3881    2.1132    0.0000 O   0  0  0  0  0  0  0  0  0  0  0  0
  1  2  2  0
  2  3  1  0
  3  4  1  0
  4  5  1  6
  4  6  1  0
  6  7  1  6
  8  7  1  6
  8  9  1  0
  9 10  1  0
 10 11  1  6
 10 12  1  0
 12 13  1  0
 13 14  1  6
 14 15  1  0
 14 16  1  0
 13 17  1  0
 17 18  1  1
  6 19  1  0
 19 20  1  1
 19 21  1  0
 21 22  1  6
 23 22  1  6
 23 24  1  0
 24 25  1  0
 25 26  1  1
 26 27  1  0
 25 28  1  0
 28 29  1  6
 28 30  1  0
 30 31  1  1
 30 32  1  0
 21 33  1  0
 33 34  1  1
 33 35  1  0
 35 36  2  0
 35 37  1  0
 37 38  1  0
 38 39  1  6
 38 40  1  0
 40 41  1  6
 40 42  1  0
 42 43  1  6
 42 44  1  0
 44 45  1  1
 44 46  1  0
 46 47  1  6
 46  2  1  0
 17  8  1  0
 32 23  1  0
M  END
>  <ChEMBL_IDs>  (181) 
CHEMBL1957032

>  <target_organism>  (181) 
Staphylococcus aureus

>  <target_molecule_pref_name>  (181) 
nan

>  <# Known Targets>  (181) 
nan

>  <Known Targets>  (181) 
nan

>  <smiles>  (181) 
C=C1C[C@H](C)[C@H](O[C@@H]2O[C@H](C)C[C@H](N(C)C)[C@H]2O)[C@@H](C)[C@H](O[C@H]2C[C@H](OC)[C@@H](O)[C@H](C)O2)[C@@H](C)C(=O)O[C@H](C)[C@H](C)[C@H](O)[C@@H](C)[C@@H]1O

$$$$

     RDKit          2D

 47 49  0  0  0  0  0  0  0  0999 V2000
    4.8705    0.0000    0.0000 C   0  0  0  0  0  0  0  0  0  0  0  0
    3.3705    0.0000    0.0000 C   0  0  0  0  0  0  0  0  0  0  0  0
    3.0367   -1.4624    0.0000 C   0  0  0  0  0  0  0  0  0  0  0  0
    2.1015   -2.6351    0.0000 C   0  0  0  0  0  0  0  0  0  0  0  0
    3.1735   -3.4556    0.0000 C   0  0  0  0  0  0  0  0  0  0  0  0
    0.7500   -3.2860    0.0000 C   0  0  0  0  0  0  0  0  0  0  0  0
    1.0838   -4.7484    0.0000 O   0  0  0  0  0  0  0  0  0  0  0  0
    2.5171   -5.1905    0.0000 C   0  0  0  0  0  0  0  0  0  0  0  0
    3.6167   -4.1702    0.0000 O   0  0  0  0  0  0  0  0  0  0  0  0
    5.0501   -4.6124    0.0000 C   0  0  0  0  0  0  0  0  0  0  0  0
    6.1497   -3.5921    0.0000 C   0  0  0  0  0  0  0  0  0  0  0  0
    5.3839   -6.0748    0.0000 C   0  0  0  0  0  0  0  0  0  0  0  0
    4.2843   -7.0950    0.0000 C   0  0  0  0  0  0  0  0  0  0  0  0
    4.6181   -8.5574    0.0000 N   0  0  0  0  0  0  0  0  0  0  0  0
    6.0514   -8.9995    0.0000 C   0  0  0  0  0  0  0  0  0  0  0  0
    3.5185   -9.5777    0.0000 C   0  0  0  0  0  0  0  0  0  0  0  0
    2.8509   -6.6529    0.0000 C   0  0  0  0  0  0  0  0  0  0  0  0
    1.7513   -7.6731    0.0000 O   0  0  0  0  0  0  0  0  0  0  0  0
   -0.7500   -3.2860    0.0000 C   0  0  0  0  0  0  0  0  0  0  0  0
   -1.0838   -4.7484    0.0000 C   0  0  0  0  0  0  0  0  0  0  0  0
   -2.1015   -2.6351    0.0000 C   0  0  0  0  0  0  0  0  0  0  0  0
   -3.0367   -3.8079    0.0000 O   0  0  0  0  0  0  0  0  0  0  0  0
   -4.5199   -3.5843    0.0000 C   0  0  0  0  0  0  0  0  0  0  0  0
   -5.0679   -2.1880    0.0000 C   0  0  0  0  0  0  0  0  0  0  0  0
   -6.5512   -1.9644    0.0000 C   0  0  0  0  0  0  0  0  0  0  0  0
   -7.0992   -0.5681    0.0000 O   0  0  0  0  0  0  0  0  0  0  0  0
   -8.5824   -0.3446    0.0000 C   0  0  0  0  0  0  0  0  0  0  0  0
   -7.4864   -3.1372    0.0000 C   0  0  0  0  0  0  0  0  0  0  0  0
   -8.9697   -2.9136    0.0000 O   0  0  0  0  0  0  0  0  0  0  0  0
   -6.9384   -4.5335    0.0000 C   0  0  0  0  0  0  0  0  0  0  0  0
   -7.8736   -5.7063    0.0000 C   0  0  0  0  0  0  0  0  0  0  0  0
   -5.4552   -4.7571    0.0000 O   0  0  0  0  0  0  0  0  0  0  0  0
   -3.0367   -1.4624    0.0000 C   0  0  0  0  0  0  0  0  0  0  0  0
   -4.5055   -1.7669    0.0000 C   0  0  0  0  0  0  0  0  0  0  0  0
   -3.3705    0.0000    0.0000 C   0  0  0  0  0  0  0  0  0  0  0  0
   -4.8705    0.0000    0.0000 O   0  0  0  0  0  0  0  0  0  0  0  0
   -3.0367    1.4624    0.0000 O   0  0  0  0  0  0  0  0  0  0  0  0
   -2.1015    2.6351    0.0000 C   0  0  0  0  0  0  0  0  0  0  0  0
   -3.0367    3.8079    0.0000 C   0  0  0  0  0  0  0  0  0  0  0  0
   -0.7500    3.2860    0.0000 C   0  0  0  0  0  0  0  0  0  0  0  0
   -1.0838    4.7484    0.0000 C   0  0  0  0  0  0  0  0  0  0  0  0
    0.7500    3.2860    0.0000 C   0  0  0  0  0  0  0  0  0  0  0  0
    1.0838    4.7484    0.0000 O   0  0  0  0  0  0  0  0  0  0  0  0
    2.1015    2.6351    0.0000 C   0  0  0  0  0  0  0  0  0  0  0  0
    3.0367    3.8079    0.0000 C   0  0  0  0  0  0  0  0  0  0  0  0
    3.0367    1.4624    0.0000 C   0  0  0  0  0  0  0  0  0  0  0  0
    4.3881    2.1132    0.0000 O   0  0  0  0  0  0  0  0  0  0  0  0
  1  2  2  0
  2  3  1  0
  3  4  1  0
  4  5  1  6
  4  6  1  0
  6  7  1  6
  8  7  1  6
  8  9  1  0
  9 10  1  0
 10 11  1  6
 10 12  1  0
 12 13  1  0
 13 14  1  6
 14 15  1  0
 14 16  1  0
 13 17  1  0
 17 18  1  1
  6 19  1  0
 19 20  1  1
 19 21  1  0
 21 22  1  6
 23 22  1  6
 23 24  1  0
 24 25  1  0
 25 26  1  1
 26 27  1  0
 25 28  1  0
 28 29  1  6
 28 30  1  0
 30 31  1  1
 30 32  1  0
 21 33  1  0
 33 34  1  1
 33 35  1  0
 35 36  2  0
 35 37  1  0
 37 38  1  0
 38 39  1  6
 38 40  1  0
 40 41  1  6
 40 42  1  0
 42 43  1  6
 42 44  1  0
 44 45  1  1
 44 46  1  0
 46 47  1  1
 46  2  1  0
 17  8  1  0
 32 23  1  0
M  END
>  <ChEMBL_IDs>  (182) 
CHEMBL1957027

>  <target_organism>  (182) 
Staphylococcus aureus

>  <target_molecule_pref_name>  (182) 
nan

>  <# Known Targets>  (182) 
nan

>  <Known Targets>  (182) 
nan

>  <smiles>  (182) 
C=C1C[C@H](C)[C@H](O[C@@H]2O[C@H](C)C[C@H](N(C)C)[C@H]2O)[C@@H](C)[C@H](O[C@H]2C[C@H](OC)[C@@H](O)[C@H](C)O2)[C@@H](C)C(=O)O[C@H](C)[C@H](C)[C@H](O)[C@@H](C)[C@H]1O

$$$$

     RDKit          2D

 48 50  0  0  0  0  0  0  0  0999 V2000
    5.6205   -1.2990    0.0000 C   0  0  0  0  0  0  0  0  0  0  0  0
    4.8705    0.0000    0.0000 C   0  0  0  0  0  0  0  0  0  0  0  0
    3.3705    0.0000    0.0000 C   0  0  0  0  0  0  0  0  0  0  0  0
    3.0367   -1.4624    0.0000 O   0  0  0  0  0  0  0  0  0  0  0  0
    2.1015   -2.6351    0.0000 C   0  0  0  0  0  0  0  0  0  0  0  0
    3.0367   -3.8079    0.0000 O   0  0  0  0  0  0  0  0  0  0  0  0
    0.7500   -3.2860    0.0000 C   0  0  0  0  0  0  0  0  0  0  0  0
   -0.7500   -3.2860    0.0000 C   0  0  0  0  0  0  0  0  0  0  0  0
   -1.0838   -4.7484    0.0000 O   0  0  0  0  0  0  0  0  0  0  0  0
    0.0158   -5.7686    0.0000 C   0  0  0  0  0  0  0  0  0  0  0  0
    1.4492   -5.3265    0.0000 C   0  0  0  0  0  0  0  0  0  0  0  0
    2.5487   -6.3467    0.0000 C   0  0  0  0  0  0  0  0  0  0  0  0
    3.9309   -6.9294    0.0000 C   0  0  0  0  0  0  0  0  0  0  0  0
    3.3626   -5.0867    0.0000 O   0  0  0  0  0  0  0  0  0  0  0  0
    2.2150   -7.8091    0.0000 C   0  0  0  0  0  0  0  0  0  0  0  0
    3.3145   -8.8294    0.0000 O   0  0  0  0  0  0  0  0  0  0  0  0
    0.7816   -8.2513    0.0000 C   0  0  0  0  0  0  0  0  0  0  0  0
    0.4478   -9.7137    0.0000 C   0  0  0  0  0  0  0  0  0  0  0  0
   -0.3180   -7.2310    0.0000 O   0  0  0  0  0  0  0  0  0  0  0  0
   -2.1015   -2.6351    0.0000 C   0  0  0  0  0  0  0  0  0  0  0  0
   -3.0367   -3.8079    0.0000 C   0  0  0  0  0  0  0  0  0  0  0  0
   -3.0367   -1.4624    0.0000 C   0  0  0  0  0  0  0  0  0  0  0  0
   -4.3881   -2.1132    0.0000 O   0  0  0  0  0  0  0  0  0  0  0  0
   -5.6275   -1.2682    0.0000 C   0  0  0  0  0  0  0  0  0  0  0  0
   -5.5154    0.2276    0.0000 O   0  0  0  0  0  0  0  0  0  0  0  0
   -6.7548    1.0725    0.0000 C   0  0  0  0  0  0  0  0  0  0  0  0
   -6.6427    2.5684    0.0000 C   0  0  0  0  0  0  0  0  0  0  0  0
   -8.1062    0.4217    0.0000 C   0  0  0  0  0  0  0  0  0  0  0  0
   -8.2183   -1.0741    0.0000 C   0  0  0  0  0  0  0  0  0  0  0  0
   -9.5698   -1.7249    0.0000 N   0  0  0  0  0  0  0  0  0  0  0  0
  -10.8091   -0.8799    0.0000 C   0  0  0  0  0  0  0  0  0  0  0  0
   -9.6819   -3.2207    0.0000 C   0  0  0  0  0  0  0  0  0  0  0  0
   -6.9790   -1.9191    0.0000 C   0  0  0  0  0  0  0  0  0  0  0  0
   -7.0910   -3.4149    0.0000 O   0  0  0  0  0  0  0  0  0  0  0  0
   -3.3705    0.0000    0.0000 C   0  0  0  0  0  0  0  0  0  0  0  0
   -4.6098   -0.8450    0.0000 C   0  0  0  0  0  0  0  0  0  0  0  0
   -4.6098    0.8450    0.0000 O   0  0  0  0  0  0  0  0  0  0  0  0
   -3.0367    1.4624    0.0000 C   0  0  0  0  0  0  0  0  0  0  0  0
   -2.1015    2.6351    0.0000 C   0  0  0  0  0  0  0  0  0  0  0  0
   -3.0367    3.8079    0.0000 C   0  0  0  0  0  0  0  0  0  0  0  0
   -0.7500    3.2860    0.0000 C   0  0  0  0  0  0  0  0  0  0  0  0
   -1.0838    4.7484    0.0000 O   0  0  0  0  0  0  0  0  0  0  0  0
    0.7500    3.2860    0.0000 C   0  0  0  0  0  0  0  0  0  0  0  0
    1.0838    4.7484    0.0000 C   0  0  0  0  0  0  0  0  0  0  0  0
    2.1015    2.6351    0.0000 C   0  0  0  0  0  0  0  0  0  0  0  0
    3.0367    3.8079    0.0000 O   0  0  0  0  0  0  0  0  0  0  0  0
    3.0367    1.4624    0.0000 C   0  0  0  0  0  0  0  0  0  0  0  0
    4.3881    2.1132    0.0000 C   0  0  0  0  0  0  0  0  0  0  0  0
  1  2  1  0
  2  3  1  0
  3  4  1  0
  4  5  1  0
  5  6  2  0
  5  7  1  0
  7  8  1  0
  8  9  1  0
  9 10  1  0
 10 11  1  0
 11 12  1  0
 12 13  1  0
 12 14  1  0
 12 15  1  0
 15 16  1  0
 15 17  1  0
 17 18  1  0
 17 19  1  0
  8 20  1  0
 20 21  1  0
 20 22  1  0
 22 23  1  0
 23 24  1  0
 24 25  1  0
 25 26  1  0
 26 27  1  0
 26 28  1  0
 28 29  1  0
 29 30  1  0
 30 31  1  0
 30 32  1  0
 29 33  1  0
 33 34  1  0
 22 35  1  0
 35 36  1  0
 35 37  1  0
 35 38  1  0
 38 39  1  0
 39 40  1  0
 39 41  1  0
 41 42  2  0
 41 43  1  0
 43 44  1  0
 43 45  1  0
 45 46  1  0
 45 47  1  0
 47 48  1  0
 47  3  1  0
 19 10  1  0
 33 24  1  0
M  END
>  <ChEMBL_IDs>  (183) 
nan

>  <target_organism>  (183) 
nan

>  <target_molecule_pref_name>  (183) 
nan

>  <# Known Targets>  (183) 
nan

>  <Known Targets>  (183) 
nan

>  <smiles>  (183) 
CCC1OC(=O)CC(OC2CC(C)(O)C(O)C(C)O2)C(C)C(OC2OC(C)CC(N(C)C)C2O)C(C)(O)CC(C)C(=O)C(C)C(O)C1C

$$$$

     RDKit          2D

 48 50  0  0  0  0  0  0  0  0999 V2000
    5.6205   -1.2990    0.0000 C   0  0  0  0  0  0  0  0  0  0  0  0
    4.8705    0.0000    0.0000 C   0  0  0  0  0  0  0  0  0  0  0  0
    3.3705    0.0000    0.0000 C   0  0  0  0  0  0  0  0  0  0  0  0
    3.0367   -1.4624    0.0000 O   0  0  0  0  0  0  0  0  0  0  0  0
    2.1015   -2.6351    0.0000 C   0  0  0  0  0  0  0  0  0  0  0  0
    3.0367   -3.8079    0.0000 O   0  0  0  0  0  0  0  0  0  0  0  0
    0.7500   -3.2860    0.0000 C   0  0  0  0  0  0  0  0  0  0  0  0
   -0.7500   -3.2860    0.0000 C   0  0  0  0  0  0  0  0  0  0  0  0
   -1.0838   -4.7484    0.0000 O   0  0  0  0  0  0  0  0  0  0  0  0
    0.0158   -5.7686    0.0000 C   0  0  0  0  0  0  0  0  0  0  0  0
    1.4492   -5.3265    0.0000 C   0  0  0  0  0  0  0  0  0  0  0  0
    2.5487   -6.3467    0.0000 C   0  0  0  0  0  0  0  0  0  0  0  0
    3.9309   -6.9294    0.0000 C   0  0  0  0  0  0  0  0  0  0  0  0
    3.3626   -5.0867    0.0000 O   0  0  0  0  0  0  0  0  0  0  0  0
    2.2150   -7.8091    0.0000 C   0  0  0  0  0  0  0  0  0  0  0  0
    3.3145   -8.8294    0.0000 O   0  0  0  0  0  0  0  0  0  0  0  0
    0.7816   -8.2513    0.0000 C   0  0  0  0  0  0  0  0  0  0  0  0
    0.4478   -9.7137    0.0000 C   0  0  0  0  0  0  0  0  0  0  0  0
   -0.3180   -7.2310    0.0000 O   0  0  0  0  0  0  0  0  0  0  0  0
   -2.1015   -2.6351    0.0000 C   0  0  0  0  0  0  0  0  0  0  0  0
   -3.0367   -3.8079    0.0000 C   0  0  0  0  0  0  0  0  0  0  0  0
   -3.0367   -1.4624    0.0000 C   0  0  0  0  0  0  0  0  0  0  0  0
   -4.3881   -2.1132    0.0000 O   0  0  0  0  0  0  0  0  0  0  0  0
   -5.6275   -1.2682    0.0000 C   0  0  0  0  0  0  0  0  0  0  0  0
   -5.5154    0.2276    0.0000 O   0  0  0  0  0  0  0  0  0  0  0  0
   -6.7548    1.0725    0.0000 C   0  0  0  0  0  0  0  0  0  0  0  0
   -6.6427    2.5684    0.0000 C   0  0  0  0  0  0  0  0  0  0  0  0
   -8.1062    0.4217    0.0000 C   0  0  0  0  0  0  0  0  0  0  0  0
   -8.2183   -1.0741    0.0000 C   0  0  0  0  0  0  0  0  0  0  0  0
   -9.5698   -1.7249    0.0000 N   0  0  0  0  0  0  0  0  0  0  0  0
  -10.8091   -0.8799    0.0000 C   0  0  0  0  0  0  0  0  0  0  0  0
   -9.6819   -3.2207    0.0000 C   0  0  0  0  0  0  0  0  0  0  0  0
   -6.9790   -1.9191    0.0000 C   0  0  0  0  0  0  0  0  0  0  0  0
   -7.0910   -3.4149    0.0000 O   0  0  0  0  0  0  0  0  0  0  0  0
   -3.3705    0.0000    0.0000 C   0  0  0  0  0  0  0  0  0  0  0  0
   -4.6098   -0.8450    0.0000 C   0  0  0  0  0  0  0  0  0  0  0  0
   -4.6098    0.8450    0.0000 O   0  0  0  0  0  0  0  0  0  0  0  0
   -3.0367    1.4624    0.0000 C   0  0  0  0  0  0  0  0  0  0  0  0
   -2.1015    2.6351    0.0000 C   0  0  0  0  0  0  0  0  0  0  0  0
   -3.0367    3.8079    0.0000 C   0  0  0  0  0  0  0  0  0  0  0  0
   -0.7500    3.2860    0.0000 C   0  0  0  0  0  0  0  0  0  0  0  0
   -1.0838    4.7484    0.0000 O   0  0  0  0  0  0  0  0  0  0  0  0
    0.7500    3.2860    0.0000 C   0  0  0  0  0  0  0  0  0  0  0  0
    1.0838    4.7484    0.0000 C   0  0  0  0  0  0  0  0  0  0  0  0
    2.1015    2.6351    0.0000 C   0  0  0  0  0  0  0  0  0  0  0  0
    3.0367    3.8079    0.0000 O   0  0  0  0  0  0  0  0  0  0  0  0
    3.0367    1.4624    0.0000 C   0  0  0  0  0  0  0  0  0  0  0  0
    4.3881    2.1132    0.0000 C   0  0  0  0  0  0  0  0  0  0  0  0
  1  2  1  0
  2  3  1  0
  3  4  1  0
  4  5  1  0
  5  6  2  0
  5  7  1  0
  7  8  1  0
  8  9  1  0
  9 10  1  0
 10 11  1  0
 11 12  1  0
 12 13  1  0
 12 14  1  0
 12 15  1  0
 15 16  1  0
 15 17  1  0
 17 18  1  0
 17 19  1  0
  8 20  1  0
 20 21  1  0
 20 22  1  0
 22 23  1  0
 23 24  1  0
 24 25  1  0
 25 26  1  0
 26 27  1  0
 26 28  1  0
 28 29  1  0
 29 30  1  0
 30 31  1  0
 30 32  1  0
 29 33  1  0
 33 34  1  0
 22 35  1  0
 35 36  1  0
 35 37  1  0
 35 38  1  0
 38 39  1  0
 39 40  1  0
 39 41  1  0
 41 42  2  0
 41 43  1  0
 43 44  1  0
 43 45  1  0
 45 46  1  0
 45 47  1  0
 47 48  1  0
 47  3  1  0
 19 10  1  0
 33 24  1  0
M  END
>  <ChEMBL_IDs>  (184) 
nan

>  <target_organism>  (184) 
nan

>  <target_molecule_pref_name>  (184) 
nan

>  <# Known Targets>  (184) 
nan

>  <Known Targets>  (184) 
nan

>  <smiles>  (184) 
CCC1OC(=O)CC(OC2CC(C)(O)C(O)C(C)O2)C(C)C(OC2OC(C)CC(N(C)C)C2O)C(C)(O)CC(C)C(=O)C(C)C(O)C1C

$$$$

     RDKit          2D

 49 51  0  0  0  0  0  0  0  0999 V2000
    5.6205   -1.2990    0.0000 C   0  0  0  0  0  0  0  0  0  0  0  0
    4.8705    0.0000    0.0000 C   0  0  0  0  0  0  0  0  0  0  0  0
    3.3705    0.0000    0.0000 C   0  0  0  0  0  0  0  0  0  0  0  0
    3.0367   -1.4624    0.0000 O   0  0  0  0  0  0  0  0  0  0  0  0
    2.1015   -2.6351    0.0000 C   0  0  0  0  0  0  0  0  0  0  0  0
    3.0367   -3.8079    0.0000 O   0  0  0  0  0  0  0  0  0  0  0  0
    0.7500   -3.2860    0.0000 C   0  0  0  0  0  0  0  0  0  0  0  0
    1.3600   -4.4903    0.0000 C   0  0  0  0  0  0  0  0  0  0  0  0
   -0.7500   -3.2860    0.0000 C   0  0  0  0  0  0  0  0  0  0  0  0
   -1.0838   -4.7484    0.0000 O   0  0  0  0  0  0  0  0  0  0  0  0
    0.0158   -5.7686    0.0000 C   0  0  0  0  0  0  0  0  0  0  0  0
   -0.3180   -7.2310    0.0000 C   0  0  0  0  0  0  0  0  0  0  0  0
    0.7816   -8.2513    0.0000 C   0  0  0  0  0  0  0  0  0  0  0  0
    1.4659   -9.5861    0.0000 C   0  0  0  0  0  0  0  0  0  0  0  0
   -0.4141   -9.1570    0.0000 O   0  0  0  0  0  0  0  0  0  0  0  0
    2.2150   -7.8091    0.0000 C   0  0  0  0  0  0  0  0  0  0  0  0
    3.3145   -8.8294    0.0000 O   0  0  0  0  0  0  0  0  0  0  0  0
    2.5487   -6.3467    0.0000 C   0  0  0  0  0  0  0  0  0  0  0  0
    3.9821   -5.9046    0.0000 C   0  0  0  0  0  0  0  0  0  0  0  0
    1.4492   -5.3265    0.0000 O   0  0  0  0  0  0  0  0  0  0  0  0
   -2.1015   -2.6351    0.0000 C   0  0  0  0  0  0  0  0  0  0  0  0
   -3.0367   -3.8079    0.0000 C   0  0  0  0  0  0  0  0  0  0  0  0
   -3.0367   -1.4624    0.0000 C   0  0  0  0  0  0  0  0  0  0  0  0
   -4.3881   -2.1132    0.0000 O   0  0  0  0  0  0  0  0  0  0  0  0
   -5.6275   -1.2682    0.0000 C   0  0  0  0  0  0  0  0  0  0  0  0
   -5.5154    0.2276    0.0000 O   0  0  0  0  0  0  0  0  0  0  0  0
   -6.7548    1.0725    0.0000 C   0  0  0  0  0  0  0  0  0  0  0  0
   -6.6427    2.5684    0.0000 C   0  0  0  0  0  0  0  0  0  0  0  0
   -8.1062    0.4217    0.0000 C   0  0  0  0  0  0  0  0  0  0  0  0
   -8.2183   -1.0741    0.0000 C   0  0  0  0  0  0  0  0  0  0  0  0
   -9.5698   -1.7249    0.0000 N   0  0  0  0  0  0  0  0  0  0  0  0
   -6.9790   -1.9191    0.0000 C   0  0  0  0  0  0  0  0  0  0  0  0
   -7.0910   -3.4149    0.0000 O   0  0  0  0  0  0  0  0  0  0  0  0
   -8.4425   -4.0657    0.0000 C   0  0  0  0  0  0  0  0  0  0  0  0
   -3.3705    0.0000    0.0000 C   0  0  0  0  0  0  0  0  0  0  0  0
   -4.6098   -0.8450    0.0000 C   0  0  0  0  0  0  0  0  0  0  0  0
   -4.6098    0.8450    0.0000 O   0  0  0  0  0  0  0  0  0  0  0  0
   -3.0367    1.4624    0.0000 C   0  0  0  0  0  0  0  0  0  0  0  0
   -2.1015    2.6351    0.0000 C   0  0  0  0  0  0  0  0  0  0  0  0
   -3.0367    3.8079    0.0000 C   0  0  0  0  0  0  0  0  0  0  0  0
   -0.7500    3.2860    0.0000 C   0  0  0  0  0  0  0  0  0  0  0  0
   -1.0838    4.7484    0.0000 O   0  0  0  0  0  0  0  0  0  0  0  0
    0.7500    3.2860    0.0000 C   0  0  0  0  0  0  0  0  0  0  0  0
    1.0838    4.7484    0.0000 C   0  0  0  0  0  0  0  0  0  0  0  0
    2.1015    2.6351    0.0000 C   0  0  0  0  0  0  0  0  0  0  0  0
    3.0367    3.8079    0.0000 O   0  0  0  0  0  0  0  0  0  0  0  0
    3.0367    1.4624    0.0000 C   0  0  0  0  0  0  0  0  0  0  0  0
    3.7867    2.7614    0.0000 C   0  0  0  0  0  0  0  0  0  0  0  0
    4.5199    1.2388    0.0000 O   0  0  0  0  0  0  0  0  0  0  0  0
  1  2  1  0
  3  2  1  1
  3  4  1  0
  4  5  1  0
  5  6  2  0
  5  7  1  0
  7  8  1  6
  7  9  1  0
  9 10  1  1
 10 11  1  0
 11 12  1  0
 12 13  1  0
 13 14  1  0
 13 15  1  0
 13 16  1  0
 16 17  1  0
 16 18  1  0
 18 19  1  0
 18 20  1  0
  9 21  1  0
 21 22  1  6
 21 23  1  0
 23 24  1  1
 24 25  1  0
 25 26  1  0
 26 27  1  0
 27 28  1  0
 27 29  1  0
 29 30  1  0
 30 31  1  0
 30 32  1  0
 32 33  1  0
 33 34  1  0
 23 35  1  0
 35 36  1  1
 35 37  1  0
 35 38  1  0
 38 39  1  0
 39 40  1  1
 39 41  1  0
 41 42  2  0
 41 43  1  0
 43 44  1  6
 43 45  1  0
 45 46  1  1
 45 47  1  0
 47 48  1  1
 47 49  1  0
 47  3  1  0
 20 11  1  0
 32 25  1  0
M  END
>  <ChEMBL_IDs>  (185) 
CHEMBL405923

>  <target_organism>  (185) 
Hepatitis C virus,None

>  <target_molecule_pref_name>  (185) 
nan

>  <# Known Targets>  (185) 
nan

>  <Known Targets>  (185) 
nan

>  <smiles>  (185) 
CC[C@H]1OC(=O)[C@H](C)[C@@H](OC2CC(C)(O)C(O)C(C)O2)[C@H](C)[C@@H](OC2OC(C)CC(N)C2OC)[C@](C)(O)C[C@@H](C)C(=O)[C@H](C)[C@@H](O)[C@]1(C)O

$$$$

     RDKit          2D

 49 51  0  0  0  0  0  0  0  0999 V2000
    5.6205   -1.2990    0.0000 C   0  0  0  0  0  0  0  0  0  0  0  0
    4.8705    0.0000    0.0000 C   0  0  0  0  0  0  0  0  0  0  0  0
    3.3705    0.0000    0.0000 C   0  0  0  0  0  0  0  0  0  0  0  0
    3.0367   -1.4624    0.0000 O   0  0  0  0  0  0  0  0  0  0  0  0
    2.1015   -2.6351    0.0000 C   0  0  0  0  0  0  0  0  0  0  0  0
    3.0367   -3.8079    0.0000 O   0  0  0  0  0  0  0  0  0  0  0  0
    0.7500   -3.2860    0.0000 C   0  0  0  0  0  0  0  0  0  0  0  0
    1.3600   -4.4903    0.0000 C   0  0  0  0  0  0  0  0  0  0  0  0
   -0.7500   -3.2860    0.0000 C   0  0  0  0  0  0  0  0  0  0  0  0
   -1.0838   -4.7484    0.0000 O   0  0  0  0  0  0  0  0  0  0  0  0
    0.0158   -5.7686    0.0000 C   0  0  0  0  0  0  0  0  0  0  0  0
   -0.3180   -7.2310    0.0000 C   0  0  0  0  0  0  0  0  0  0  0  0
    0.7816   -8.2513    0.0000 C   0  0  0  0  0  0  0  0  0  0  0  0
    1.4659   -9.5861    0.0000 C   0  0  0  0  0  0  0  0  0  0  0  0
   -0.4141   -9.1570    0.0000 O   0  0  0  0  0  0  0  0  0  0  0  0
    2.2150   -7.8091    0.0000 C   0  0  0  0  0  0  0  0  0  0  0  0
    3.3145   -8.8294    0.0000 O   0  0  0  0  0  0  0  0  0  0  0  0
    2.5487   -6.3467    0.0000 C   0  0  0  0  0  0  0  0  0  0  0  0
    3.9821   -5.9046    0.0000 C   0  0  0  0  0  0  0  0  0  0  0  0
    1.4492   -5.3265    0.0000 O   0  0  0  0  0  0  0  0  0  0  0  0
   -2.1015   -2.6351    0.0000 C   0  0  0  0  0  0  0  0  0  0  0  0
   -3.0367   -3.8079    0.0000 C   0  0  0  0  0  0  0  0  0  0  0  0
   -3.0367   -1.4624    0.0000 C   0  0  0  0  0  0  0  0  0  0  0  0
   -4.3881   -2.1132    0.0000 O   0  0  0  0  0  0  0  0  0  0  0  0
   -5.6275   -1.2682    0.0000 C   0  0  0  0  0  0  0  0  0  0  0  0
   -5.5154    0.2276    0.0000 O   0  0  0  0  0  0  0  0  0  0  0  0
   -6.7548    1.0725    0.0000 C   0  0  0  0  0  0  0  0  0  0  0  0
   -6.6427    2.5684    0.0000 C   0  0  0  0  0  0  0  0  0  0  0  0
   -8.1062    0.4217    0.0000 C   0  0  0  0  0  0  0  0  0  0  0  0
   -8.2183   -1.0741    0.0000 C   0  0  0  0  0  0  0  0  0  0  0  0
   -9.5698   -1.7249    0.0000 N   0  0  0  0  0  0  0  0  0  0  0  0
  -10.8091   -0.8799    0.0000 C   0  0  0  0  0  0  0  0  0  0  0  0
   -6.9790   -1.9191    0.0000 C   0  0  0  0  0  0  0  0  0  0  0  0
   -7.0910   -3.4149    0.0000 O   0  0  0  0  0  0  0  0  0  0  0  0
   -3.3705    0.0000    0.0000 C   0  0  0  0  0  0  0  0  0  0  0  0
   -4.6098   -0.8450    0.0000 C   0  0  0  0  0  0  0  0  0  0  0  0
   -4.6098    0.8450    0.0000 O   0  0  0  0  0  0  0  0  0  0  0  0
   -3.0367    1.4624    0.0000 C   0  0  0  0  0  0  0  0  0  0  0  0
   -2.1015    2.6351    0.0000 C   0  0  0  0  0  0  0  0  0  0  0  0
   -3.0367    3.8079    0.0000 C   0  0  0  0  0  0  0  0  0  0  0  0
   -0.7500    3.2860    0.0000 C   0  0  0  0  0  0  0  0  0  0  0  0
   -1.0838    4.7484    0.0000 O   0  0  0  0  0  0  0  0  0  0  0  0
    0.7500    3.2860    0.0000 C   0  0  0  0  0  0  0  0  0  0  0  0
    1.0838    4.7484    0.0000 C   0  0  0  0  0  0  0  0  0  0  0  0
    2.1015    2.6351    0.0000 C   0  0  0  0  0  0  0  0  0  0  0  0
    3.0367    3.8079    0.0000 O   0  0  0  0  0  0  0  0  0  0  0  0
    3.0367    1.4624    0.0000 C   0  0  0  0  0  0  0  0  0  0  0  0
    3.7867    2.7614    0.0000 C   0  0  0  0  0  0  0  0  0  0  0  0
    4.5199    1.2388    0.0000 O   0  0  0  0  0  0  0  0  0  0  0  0
  1  2  1  0
  2  3  1  0
  3  4  1  0
  4  5  1  0
  5  6  2  0
  5  7  1  0
  7  8  1  0
  7  9  1  0
  9 10  1  0
 10 11  1  0
 11 12  1  0
 12 13  1  0
 13 14  1  0
 13 15  1  0
 13 16  1  0
 16 17  1  0
 16 18  1  0
 18 19  1  0
 18 20  1  0
  9 21  1  0
 21 22  1  0
 21 23  1  0
 23 24  1  0
 24 25  1  0
 25 26  1  0
 26 27  1  0
 27 28  1  0
 27 29  1  0
 29 30  1  0
 30 31  1  0
 31 32  1  0
 30 33  1  0
 33 34  1  0
 23 35  1  0
 35 36  1  0
 35 37  1  0
 35 38  1  0
 38 39  1  0
 39 40  1  0
 39 41  1  0
 41 42  2  0
 41 43  1  0
 43 44  1  0
 43 45  1  0
 45 46  1  0
 45 47  1  0
 47 48  1  0
 47 49  1  0
 47  3  1  0
 20 11  1  0
 33 25  1  0
M  END
>  <ChEMBL_IDs>  (186) 
nan

>  <target_organism>  (186) 
nan

>  <target_molecule_pref_name>  (186) 
nan

>  <# Known Targets>  (186) 
nan

>  <Known Targets>  (186) 
nan

>  <smiles>  (186) 
CCC1OC(=O)C(C)C(OC2CC(C)(O)C(O)C(C)O2)C(C)C(OC2OC(C)CC(NC)C2O)C(C)(O)CC(C)C(=O)C(C)C(O)C1(C)O

$$$$

     RDKit          2D

 47 49  0  0  0  0  0  0  0  0999 V2000
    2.2457   -8.2906    0.0000 C   0  0  0  0  0  0  0  0  0  0  0  0
    2.1336   -6.7948    0.0000 O   0  0  0  0  0  0  0  0  0  0  0  0
    3.3730   -5.9498    0.0000 C   0  0  0  0  0  0  0  0  0  0  0  0
    3.2609   -4.4540    0.0000 C   0  0  0  0  0  0  0  0  0  0  0  0
    4.5002   -3.6090    0.0000 C   0  0  0  0  0  0  0  0  0  0  0  0
    4.3881   -2.1132    0.0000 O   0  0  0  0  0  0  0  0  0  0  0  0
    3.0367   -1.4624    0.0000 C   0  0  0  0  0  0  0  0  0  0  0  0
    3.3705    0.0000    0.0000 C   0  0  0  0  0  0  0  0  0  0  0  0
    4.8705    0.0000    0.0000 C   0  0  0  0  0  0  0  0  0  0  0  0
    3.0367    1.4624    0.0000 C   0  0  0  0  0  0  0  0  0  0  0  0
    4.3881    2.1132    0.0000 O   0  0  0  0  0  0  0  0  0  0  0  0
    2.1015    2.6351    0.0000 O   0  0  0  0  0  0  0  0  0  0  0  0
    0.7500    3.2860    0.0000 C   0  0  0  0  0  0  0  0  0  0  0  0
    1.0838    4.7484    0.0000 C   0  0  0  0  0  0  0  0  0  0  0  0
   -0.7500    3.2860    0.0000 C   0  0  0  0  0  0  0  0  0  0  0  0
   -1.0838    4.7484    0.0000 C   0  0  0  0  0  0  0  0  0  0  0  0
   -2.1015    2.6351    0.0000 C   0  0  0  0  0  0  0  0  0  0  0  0
   -3.0367    3.8079    0.0000 O   0  0  0  0  0  0  0  0  0  0  0  0
   -3.0367    1.4624    0.0000 C   0  0  0  0  0  0  0  0  0  0  0  0
   -4.3881    2.1132    0.0000 C   0  0  0  0  0  0  0  0  0  0  0  0
   -3.3705    0.0000    0.0000 C   0  0  0  0  0  0  0  0  0  0  0  0
   -4.8705    0.0000    0.0000 O   0  0  0  0  0  0  0  0  0  0  0  0
   -3.0367   -1.4624    0.0000 C   0  0  0  0  0  0  0  0  0  0  0  0
   -4.3881   -2.1132    0.0000 C   0  0  0  0  0  0  0  0  0  0  0  0
   -2.1015   -2.6351    0.0000 C   0  0  0  0  0  0  0  0  0  0  0  0
   -0.7500   -3.2860    0.0000 C   0  0  0  0  0  0  0  0  0  0  0  0
   -1.4277   -4.6241    0.0000 C   0  0  0  0  0  0  0  0  0  0  0  0
    0.7500   -3.2860    0.0000 C   0  0  0  0  0  0  0  0  0  0  0  0
    1.0838   -4.7484    0.0000 O   0  0  0  0  0  0  0  0  0  0  0  0
   -0.0158   -5.7686    0.0000 C   0  0  0  0  0  0  0  0  0  0  0  0
    0.3180   -7.2310    0.0000 O   0  0  0  0  0  0  0  0  0  0  0  0
   -0.7816   -8.2513    0.0000 C   0  0  0  0  0  0  0  0  0  0  0  0
   -0.4478   -9.7137    0.0000 C   0  0  0  0  0  0  0  0  0  0  0  0
   -2.2150   -7.8091    0.0000 C   0  0  0  0  0  0  0  0  0  0  0  0
   -2.5487   -6.3467    0.0000 C   0  0  0  0  0  0  0  0  0  0  0  0
   -3.9821   -5.9046    0.0000 N   0  0  0  0  0  0  0  0  0  0  0  0
   -5.0817   -6.9249    0.0000 C   0  0  0  0  0  0  0  0  0  0  0  0
   -4.3159   -4.4422    0.0000 C   0  0  0  0  0  0  0  0  0  0  0  0
   -1.4492   -5.3265    0.0000 C   0  0  0  0  0  0  0  0  0  0  0  0
   -1.7829   -3.8641    0.0000 O   0  0  0  0  0  0  0  0  0  0  0  0
    2.1015   -2.6351    0.0000 C   0  0  0  0  0  0  0  0  0  0  0  0
    2.7251   -3.9993    0.0000 C   0  0  0  0  0  0  0  0  0  0  0  0
    5.8517   -4.2598    0.0000 O   0  0  0  0  0  0  0  0  0  0  0  0
    5.9638   -5.7557    0.0000 C   0  0  0  0  0  0  0  0  0  0  0  0
    7.3152   -6.4065    0.0000 C   0  0  0  0  0  0  0  0  0  0  0  0
    4.7244   -6.6006    0.0000 C   0  0  0  0  0  0  0  0  0  0  0  0
    4.8365   -8.0964    0.0000 O   0  0  0  0  0  0  0  0  0  0  0  0
  1  2  1  0
  3  2  1  1
  3  4  1  0
  4  5  1  0
  5  6  1  6
  7  6  1  1
  7  8  1  0
  8  9  1  6
  8 10  1  0
 10 11  2  0
 10 12  1  0
 12 13  1  0
 13 14  1  1
 13 15  1  0
 15 16  1  1
 15 17  1  0
 17 18  1  1
 17 19  1  0
 19 20  1  6
 19 21  1  0
 21 22  1  6
 21 23  1  0
 23 24  1  1
 23 25  1  0
 25 26  1  0
 26 27  1  1
 26 28  1  0
 28 29  1  1
 30 29  1  6
 30 31  1  0
 31 32  1  0
 32 33  1  6
 32 34  1  0
 34 35  1  0
 35 36  1  6
 36 37  1  0
 36 38  1  0
 35 39  1  0
 39 40  1  1
 28 41  1  0
 41 42  1  6
  5 43  1  0
 43 44  1  0
 44 45  1  1
 44 46  1  0
 46 47  1  6
 46  3  1  0
 41  7  1  0
 39 30  1  0
M  END
>  <ChEMBL_IDs>  (187) 
CHEMBL1957033

>  <target_organism>  (187) 
Staphylococcus aureus

>  <target_molecule_pref_name>  (187) 
nan

>  <# Known Targets>  (187) 
nan

>  <Known Targets>  (187) 
nan

>  <smiles>  (187) 
CO[C@H]1C[C@H](O[C@@H]2[C@@H](C)C(=O)O[C@H](C)[C@H](C)[C@H](O)[C@@H](C)[C@@H](O)[C@H](C)C[C@H](C)[C@H](O[C@@H]3O[C@H](C)C[C@H](N(C)C)[C@H]3O)[C@H]2C)O[C@@H](C)[C@@H]1O

$$$$

     RDKit          2D

 47 49  0  0  0  0  0  0  0  0999 V2000
    2.2457   -8.2906    0.0000 C   0  0  0  0  0  0  0  0  0  0  0  0
    2.1336   -6.7948    0.0000 O   0  0  0  0  0  0  0  0  0  0  0  0
    3.3730   -5.9498    0.0000 C   0  0  0  0  0  0  0  0  0  0  0  0
    3.2609   -4.4540    0.0000 C   0  0  0  0  0  0  0  0  0  0  0  0
    4.5002   -3.6090    0.0000 C   0  0  0  0  0  0  0  0  0  0  0  0
    4.3881   -2.1132    0.0000 O   0  0  0  0  0  0  0  0  0  0  0  0
    3.0367   -1.4624    0.0000 C   0  0  0  0  0  0  0  0  0  0  0  0
    3.3705    0.0000    0.0000 C   0  0  0  0  0  0  0  0  0  0  0  0
    4.8705    0.0000    0.0000 C   0  0  0  0  0  0  0  0  0  0  0  0
    3.0367    1.4624    0.0000 C   0  0  0  0  0  0  0  0  0  0  0  0
    4.3881    2.1132    0.0000 O   0  0  0  0  0  0  0  0  0  0  0  0
    2.1015    2.6351    0.0000 O   0  0  0  0  0  0  0  0  0  0  0  0
    0.7500    3.2860    0.0000 C   0  0  0  0  0  0  0  0  0  0  0  0
    1.0838    4.7484    0.0000 C   0  0  0  0  0  0  0  0  0  0  0  0
   -0.7500    3.2860    0.0000 C   0  0  0  0  0  0  0  0  0  0  0  0
   -1.0838    4.7484    0.0000 C   0  0  0  0  0  0  0  0  0  0  0  0
   -2.1015    2.6351    0.0000 C   0  0  0  0  0  0  0  0  0  0  0  0
   -3.0367    3.8079    0.0000 O   0  0  0  0  0  0  0  0  0  0  0  0
   -3.0367    1.4624    0.0000 C   0  0  0  0  0  0  0  0  0  0  0  0
   -4.3881    2.1132    0.0000 C   0  0  0  0  0  0  0  0  0  0  0  0
   -3.3705    0.0000    0.0000 C   0  0  0  0  0  0  0  0  0  0  0  0
   -4.8705    0.0000    0.0000 O   0  0  0  0  0  0  0  0  0  0  0  0
   -3.0367   -1.4624    0.0000 C   0  0  0  0  0  0  0  0  0  0  0  0
   -4.3881   -2.1132    0.0000 C   0  0  0  0  0  0  0  0  0  0  0  0
   -2.1015   -2.6351    0.0000 C   0  0  0  0  0  0  0  0  0  0  0  0
   -0.7500   -3.2860    0.0000 C   0  0  0  0  0  0  0  0  0  0  0  0
   -1.4277   -4.6241    0.0000 C   0  0  0  0  0  0  0  0  0  0  0  0
    0.7500   -3.2860    0.0000 C   0  0  0  0  0  0  0  0  0  0  0  0
    1.0838   -4.7484    0.0000 O   0  0  0  0  0  0  0  0  0  0  0  0
   -0.0158   -5.7686    0.0000 C   0  0  0  0  0  0  0  0  0  0  0  0
    0.3180   -7.2310    0.0000 O   0  0  0  0  0  0  0  0  0  0  0  0
   -0.7816   -8.2513    0.0000 C   0  0  0  0  0  0  0  0  0  0  0  0
   -0.4478   -9.7137    0.0000 C   0  0  0  0  0  0  0  0  0  0  0  0
   -2.2150   -7.8091    0.0000 C   0  0  0  0  0  0  0  0  0  0  0  0
   -2.5487   -6.3467    0.0000 C   0  0  0  0  0  0  0  0  0  0  0  0
   -3.9821   -5.9046    0.0000 N   0  0  0  0  0  0  0  0  0  0  0  0
   -5.0817   -6.9249    0.0000 C   0  0  0  0  0  0  0  0  0  0  0  0
   -4.3159   -4.4422    0.0000 C   0  0  0  0  0  0  0  0  0  0  0  0
   -1.4492   -5.3265    0.0000 C   0  0  0  0  0  0  0  0  0  0  0  0
   -1.7829   -3.8641    0.0000 O   0  0  0  0  0  0  0  0  0  0  0  0
    2.1015   -2.6351    0.0000 C   0  0  0  0  0  0  0  0  0  0  0  0
    2.7251   -3.9993    0.0000 C   0  0  0  0  0  0  0  0  0  0  0  0
    5.8517   -4.2598    0.0000 O   0  0  0  0  0  0  0  0  0  0  0  0
    5.9638   -5.7557    0.0000 C   0  0  0  0  0  0  0  0  0  0  0  0
    7.3152   -6.4065    0.0000 C   0  0  0  0  0  0  0  0  0  0  0  0
    4.7244   -6.6006    0.0000 C   0  0  0  0  0  0  0  0  0  0  0  0
    4.8365   -8.0964    0.0000 O   0  0  0  0  0  0  0  0  0  0  0  0
  1  2  1  0
  3  2  1  1
  3  4  1  0
  4  5  1  0
  5  6  1  6
  7  6  1  1
  7  8  1  0
  8  9  1  6
  8 10  1  0
 10 11  2  0
 10 12  1  0
 12 13  1  0
 13 14  1  1
 13 15  1  0
 15 16  1  1
 15 17  1  0
 17 18  1  1
 17 19  1  0
 19 20  1  6
 19 21  1  0
 21 22  1  1
 21 23  1  0
 23 24  1  1
 23 25  1  0
 25 26  1  0
 26 27  1  1
 26 28  1  0
 28 29  1  1
 30 29  1  6
 30 31  1  0
 31 32  1  0
 32 33  1  6
 32 34  1  0
 34 35  1  0
 35 36  1  6
 36 37  1  0
 36 38  1  0
 35 39  1  0
 39 40  1  1
 28 41  1  0
 41 42  1  6
  5 43  1  0
 43 44  1  0
 44 45  1  1
 44 46  1  0
 46 47  1  6
 46  3  1  0
 41  7  1  0
 39 30  1  0
M  END
>  <ChEMBL_IDs>  (188) 
CHEMBL1957035

>  <target_organism>  (188) 
Staphylococcus aureus

>  <target_molecule_pref_name>  (188) 
nan

>  <# Known Targets>  (188) 
nan

>  <Known Targets>  (188) 
nan

>  <smiles>  (188) 
CO[C@H]1C[C@H](O[C@@H]2[C@@H](C)C(=O)O[C@H](C)[C@H](C)[C@H](O)[C@@H](C)[C@H](O)[C@H](C)C[C@H](C)[C@H](O[C@@H]3O[C@H](C)C[C@H](N(C)C)[C@H]3O)[C@H]2C)O[C@@H](C)[C@@H]1O

$$$$

     RDKit          2D

 47 49  0  0  0  0  0  0  0  0999 V2000
    2.2457   -8.2906    0.0000 C   0  0  0  0  0  0  0  0  0  0  0  0
    2.1336   -6.7948    0.0000 O   0  0  0  0  0  0  0  0  0  0  0  0
    3.3730   -5.9498    0.0000 C   0  0  0  0  0  0  0  0  0  0  0  0
    3.2609   -4.4540    0.0000 C   0  0  0  0  0  0  0  0  0  0  0  0
    4.5002   -3.6090    0.0000 C   0  0  0  0  0  0  0  0  0  0  0  0
    4.3881   -2.1132    0.0000 O   0  0  0  0  0  0  0  0  0  0  0  0
    3.0367   -1.4624    0.0000 C   0  0  0  0  0  0  0  0  0  0  0  0
    3.3705    0.0000    0.0000 C   0  0  0  0  0  0  0  0  0  0  0  0
    4.8705    0.0000    0.0000 C   0  0  0  0  0  0  0  0  0  0  0  0
    3.0367    1.4624    0.0000 C   0  0  0  0  0  0  0  0  0  0  0  0
    4.3881    2.1132    0.0000 O   0  0  0  0  0  0  0  0  0  0  0  0
    2.1015    2.6351    0.0000 O   0  0  0  0  0  0  0  0  0  0  0  0
    0.7500    3.2860    0.0000 C   0  0  0  0  0  0  0  0  0  0  0  0
    1.0838    4.7484    0.0000 C   0  0  0  0  0  0  0  0  0  0  0  0
   -0.7500    3.2860    0.0000 C   0  0  0  0  0  0  0  0  0  0  0  0
   -1.0838    4.7484    0.0000 C   0  0  0  0  0  0  0  0  0  0  0  0
   -2.1015    2.6351    0.0000 C   0  0  0  0  0  0  0  0  0  0  0  0
   -3.0367    3.8079    0.0000 O   0  0  0  0  0  0  0  0  0  0  0  0
   -3.0367    1.4624    0.0000 C   0  0  0  0  0  0  0  0  0  0  0  0
   -4.3881    2.1132    0.0000 C   0  0  0  0  0  0  0  0  0  0  0  0
   -3.3705    0.0000    0.0000 C   0  0  0  0  0  0  0  0  0  0  0  0
   -4.8705    0.0000    0.0000 O   0  0  0  0  0  0  0  0  0  0  0  0
   -3.0367   -1.4624    0.0000 C   0  0  0  0  0  0  0  0  0  0  0  0
   -4.3881   -2.1132    0.0000 C   0  0  0  0  0  0  0  0  0  0  0  0
   -2.1015   -2.6351    0.0000 C   0  0  0  0  0  0  0  0  0  0  0  0
   -0.7500   -3.2860    0.0000 C   0  0  0  0  0  0  0  0  0  0  0  0
   -1.4277   -4.6241    0.0000 C   0  0  0  0  0  0  0  0  0  0  0  0
    0.7500   -3.2860    0.0000 C   0  0  0  0  0  0  0  0  0  0  0  0
    1.0838   -4.7484    0.0000 O   0  0  0  0  0  0  0  0  0  0  0  0
   -0.0158   -5.7686    0.0000 C   0  0  0  0  0  0  0  0  0  0  0  0
    0.3180   -7.2310    0.0000 O   0  0  0  0  0  0  0  0  0  0  0  0
   -0.7816   -8.2513    0.0000 C   0  0  0  0  0  0  0  0  0  0  0  0
   -0.4478   -9.7137    0.0000 C   0  0  0  0  0  0  0  0  0  0  0  0
   -2.2150   -7.8091    0.0000 C   0  0  0  0  0  0  0  0  0  0  0  0
   -2.5487   -6.3467    0.0000 C   0  0  0  0  0  0  0  0  0  0  0  0
   -3.9821   -5.9046    0.0000 N   0  0  0  0  0  0  0  0  0  0  0  0
   -5.0817   -6.9249    0.0000 C   0  0  0  0  0  0  0  0  0  0  0  0
   -4.3159   -4.4422    0.0000 C   0  0  0  0  0  0  0  0  0  0  0  0
   -1.4492   -5.3265    0.0000 C   0  0  0  0  0  0  0  0  0  0  0  0
   -1.7829   -3.8641    0.0000 O   0  0  0  0  0  0  0  0  0  0  0  0
    2.1015   -2.6351    0.0000 C   0  0  0  0  0  0  0  0  0  0  0  0
    2.7251   -3.9993    0.0000 C   0  0  0  0  0  0  0  0  0  0  0  0
    5.8517   -4.2598    0.0000 O   0  0  0  0  0  0  0  0  0  0  0  0
    5.9638   -5.7557    0.0000 C   0  0  0  0  0  0  0  0  0  0  0  0
    7.3152   -6.4065    0.0000 C   0  0  0  0  0  0  0  0  0  0  0  0
    4.7244   -6.6006    0.0000 C   0  0  0  0  0  0  0  0  0  0  0  0
    4.8365   -8.0964    0.0000 O   0  0  0  0  0  0  0  0  0  0  0  0
  1  2  1  0
  3  2  1  1
  3  4  1  0
  4  5  1  0
  5  6  1  6
  7  6  1  1
  7  8  1  0
  8  9  1  6
  8 10  1  0
 10 11  2  0
 10 12  1  0
 12 13  1  0
 13 14  1  1
 13 15  1  0
 15 16  1  1
 15 17  1  0
 17 18  1  1
 17 19  1  0
 19 20  1  6
 19 21  1  0
 21 22  1  1
 21 23  1  0
 23 24  1  6
 23 25  1  0
 25 26  1  0
 26 27  1  1
 26 28  1  0
 28 29  1  1
 30 29  1  6
 30 31  1  0
 31 32  1  0
 32 33  1  6
 32 34  1  0
 34 35  1  0
 35 36  1  6
 36 37  1  0
 36 38  1  0
 35 39  1  0
 39 40  1  1
 28 41  1  0
 41 42  1  6
  5 43  1  0
 43 44  1  0
 44 45  1  1
 44 46  1  0
 46 47  1  6
 46  3  1  0
 41  7  1  0
 39 30  1  0
M  END
>  <ChEMBL_IDs>  (189) 
CHEMBL1957036

>  <target_organism>  (189) 
Staphylococcus aureus

>  <target_molecule_pref_name>  (189) 
nan

>  <# Known Targets>  (189) 
nan

>  <Known Targets>  (189) 
nan

>  <smiles>  (189) 
CO[C@H]1C[C@H](O[C@@H]2[C@@H](C)C(=O)O[C@H](C)[C@H](C)[C@H](O)[C@@H](C)[C@H](O)[C@@H](C)C[C@H](C)[C@H](O[C@@H]3O[C@H](C)C[C@H](N(C)C)[C@H]3O)[C@H]2C)O[C@@H](C)[C@@H]1O

$$$$

     RDKit          2D

 47 49  0  0  0  0  0  0  0  0999 V2000
    2.2457   -8.2906    0.0000 C   0  0  0  0  0  0  0  0  0  0  0  0
    2.1336   -6.7948    0.0000 O   0  0  0  0  0  0  0  0  0  0  0  0
    3.3730   -5.9498    0.0000 C   0  0  0  0  0  0  0  0  0  0  0  0
    3.2609   -4.4540    0.0000 C   0  0  0  0  0  0  0  0  0  0  0  0
    4.5002   -3.6090    0.0000 C   0  0  0  0  0  0  0  0  0  0  0  0
    4.3881   -2.1132    0.0000 O   0  0  0  0  0  0  0  0  0  0  0  0
    3.0367   -1.4624    0.0000 C   0  0  0  0  0  0  0  0  0  0  0  0
    3.3705    0.0000    0.0000 C   0  0  0  0  0  0  0  0  0  0  0  0
    4.8705    0.0000    0.0000 C   0  0  0  0  0  0  0  0  0  0  0  0
    3.0367    1.4624    0.0000 C   0  0  0  0  0  0  0  0  0  0  0  0
    4.3881    2.1132    0.0000 O   0  0  0  0  0  0  0  0  0  0  0  0
    2.1015    2.6351    0.0000 O   0  0  0  0  0  0  0  0  0  0  0  0
    0.7500    3.2860    0.0000 C   0  0  0  0  0  0  0  0  0  0  0  0
    1.0838    4.7484    0.0000 C   0  0  0  0  0  0  0  0  0  0  0  0
   -0.7500    3.2860    0.0000 C   0  0  0  0  0  0  0  0  0  0  0  0
   -1.0838    4.7484    0.0000 C   0  0  0  0  0  0  0  0  0  0  0  0
   -2.1015    2.6351    0.0000 C   0  0  0  0  0  0  0  0  0  0  0  0
   -3.0367    3.8079    0.0000 O   0  0  0  0  0  0  0  0  0  0  0  0
   -3.0367    1.4624    0.0000 C   0  0  0  0  0  0  0  0  0  0  0  0
   -4.3881    2.1132    0.0000 C   0  0  0  0  0  0  0  0  0  0  0  0
   -3.3705    0.0000    0.0000 C   0  0  0  0  0  0  0  0  0  0  0  0
   -4.8705    0.0000    0.0000 O   0  0  0  0  0  0  0  0  0  0  0  0
   -3.0367   -1.4624    0.0000 C   0  0  0  0  0  0  0  0  0  0  0  0
   -4.3881   -2.1132    0.0000 C   0  0  0  0  0  0  0  0  0  0  0  0
   -2.1015   -2.6351    0.0000 C   0  0  0  0  0  0  0  0  0  0  0  0
   -0.7500   -3.2860    0.0000 C   0  0  0  0  0  0  0  0  0  0  0  0
   -1.4277   -4.6241    0.0000 C   0  0  0  0  0  0  0  0  0  0  0  0
    0.7500   -3.2860    0.0000 C   0  0  0  0  0  0  0  0  0  0  0  0
    1.0838   -4.7484    0.0000 O   0  0  0  0  0  0  0  0  0  0  0  0
   -0.0158   -5.7686    0.0000 C   0  0  0  0  0  0  0  0  0  0  0  0
    0.3180   -7.2310    0.0000 O   0  0  0  0  0  0  0  0  0  0  0  0
   -0.7816   -8.2513    0.0000 C   0  0  0  0  0  0  0  0  0  0  0  0
   -0.4478   -9.7137    0.0000 C   0  0  0  0  0  0  0  0  0  0  0  0
   -2.2150   -7.8091    0.0000 C   0  0  0  0  0  0  0  0  0  0  0  0
   -2.5487   -6.3467    0.0000 C   0  0  0  0  0  0  0  0  0  0  0  0
   -3.9821   -5.9046    0.0000 N   0  0  0  0  0  0  0  0  0  0  0  0
   -5.0817   -6.9249    0.0000 C   0  0  0  0  0  0  0  0  0  0  0  0
   -4.3159   -4.4422    0.0000 C   0  0  0  0  0  0  0  0  0  0  0  0
   -1.4492   -5.3265    0.0000 C   0  0  0  0  0  0  0  0  0  0  0  0
   -1.7829   -3.8641    0.0000 O   0  0  0  0  0  0  0  0  0  0  0  0
    2.1015   -2.6351    0.0000 C   0  0  0  0  0  0  0  0  0  0  0  0
    2.7251   -3.9993    0.0000 C   0  0  0  0  0  0  0  0  0  0  0  0
    5.8517   -4.2598    0.0000 O   0  0  0  0  0  0  0  0  0  0  0  0
    5.9638   -5.7557    0.0000 C   0  0  0  0  0  0  0  0  0  0  0  0
    7.3152   -6.4065    0.0000 C   0  0  0  0  0  0  0  0  0  0  0  0
    4.7244   -6.6006    0.0000 C   0  0  0  0  0  0  0  0  0  0  0  0
    4.8365   -8.0964    0.0000 O   0  0  0  0  0  0  0  0  0  0  0  0
  1  2  1  0
  3  2  1  1
  3  4  1  0
  4  5  1  0
  5  6  1  6
  7  6  1  1
  7  8  1  0
  8  9  1  6
  8 10  1  0
 10 11  2  0
 10 12  1  0
 12 13  1  0
 13 14  1  1
 13 15  1  0
 15 16  1  1
 15 17  1  0
 17 18  1  1
 17 19  1  0
 19 20  1  6
 19 21  1  0
 21 22  1  6
 21 23  1  0
 23 24  1  6
 23 25  1  0
 25 26  1  0
 26 27  1  1
 26 28  1  0
 28 29  1  1
 30 29  1  6
 30 31  1  0
 31 32  1  0
 32 33  1  6
 32 34  1  0
 34 35  1  0
 35 36  1  6
 36 37  1  0
 36 38  1  0
 35 39  1  0
 39 40  1  1
 28 41  1  0
 41 42  1  6
  5 43  1  0
 43 44  1  0
 44 45  1  1
 44 46  1  0
 46 47  1  6
 46  3  1  0
 41  7  1  0
 39 30  1  0
M  END
>  <ChEMBL_IDs>  (190) 
CHEMBL1957034

>  <target_organism>  (190) 
Staphylococcus aureus

>  <target_molecule_pref_name>  (190) 
nan

>  <# Known Targets>  (190) 
nan

>  <Known Targets>  (190) 
nan

>  <smiles>  (190) 
CO[C@H]1C[C@H](O[C@@H]2[C@@H](C)C(=O)O[C@H](C)[C@H](C)[C@H](O)[C@@H](C)[C@@H](O)[C@@H](C)C[C@H](C)[C@H](O[C@@H]3O[C@H](C)C[C@H](N(C)C)[C@H]3O)[C@H]2C)O[C@@H](C)[C@@H]1O

$$$$

     RDKit          2D

 48 50  0  0  0  0  0  0  0  0999 V2000
    8.8706    6.2995    0.0000 C   0  0  0  0  0  0  0  0  0  0  0  0
    7.7915    5.2575    0.0000 O   0  0  0  0  0  0  0  0  0  0  0  0
    6.3497    5.6710    0.0000 C   0  0  0  0  0  0  0  0  0  0  0  0
    7.0072    7.0192    0.0000 C   0  0  0  0  0  0  0  0  0  0  0  0
    6.1929    4.1792    0.0000 C   0  0  0  0  0  0  0  0  0  0  0  0
    4.8225    3.5691    0.0000 C   0  0  0  0  0  0  0  0  0  0  0  0
    4.6658    2.0773    0.0000 O   0  0  0  0  0  0  0  0  0  0  0  0
    3.2954    1.4672    0.0000 C   0  0  0  0  0  0  0  0  0  0  0  0
    3.6073    0.0000    0.0000 C   0  0  0  0  0  0  0  0  0  0  0  0
    5.1073    0.0000    0.0000 C   0  0  0  0  0  0  0  0  0  0  0  0
    3.2954   -1.4672    0.0000 C   0  0  0  0  0  0  0  0  0  0  0  0
    4.6658   -2.0773    0.0000 O   0  0  0  0  0  0  0  0  0  0  0  0
    4.8225   -3.5691    0.0000 C   0  0  0  0  0  0  0  0  0  0  0  0
    3.6090   -4.4508    0.0000 O   0  0  0  0  0  0  0  0  0  0  0  0
    3.7658   -5.9426    0.0000 C   0  0  0  0  0  0  0  0  0  0  0  0
    2.5523   -6.8242    0.0000 C   0  0  0  0  0  0  0  0  0  0  0  0
    5.1361   -6.5527    0.0000 C   0  0  0  0  0  0  0  0  0  0  0  0
    6.3497   -5.6710    0.0000 C   0  0  0  0  0  0  0  0  0  0  0  0
    7.7200   -6.2811    0.0000 N   0  0  0  0  0  0  0  0  0  0  0  0
    7.8768   -7.7729    0.0000 C   0  0  0  0  0  0  0  0  0  0  0  0
    8.9335   -5.3994    0.0000 C   0  0  0  0  0  0  0  0  0  0  0  0
    6.1929   -4.1792    0.0000 C   0  0  0  0  0  0  0  0  0  0  0  0
    7.4064   -3.2975    0.0000 O   0  0  0  0  0  0  0  0  0  0  0  0
    2.4138   -2.6807    0.0000 C   0  0  0  0  0  0  0  0  0  0  0  0
    3.8692   -3.0436    0.0000 C   0  0  0  0  0  0  0  0  0  0  0  0
    2.6225   -4.1661    0.0000 O   0  0  0  0  0  0  0  0  0  0  0  0
    1.1147   -3.4307    0.0000 C   0  0  0  0  0  0  0  0  0  0  0  0
   -0.3771   -3.5875    0.0000 C   0  0  0  0  0  0  0  0  0  0  0  0
   -0.5339   -5.0793    0.0000 C   0  0  0  0  0  0  0  0  0  0  0  0
   -1.8037   -3.1240    0.0000 C   0  0  0  0  0  0  0  0  0  0  0  0
   -2.5537   -4.4231    0.0000 O   0  0  0  0  0  0  0  0  0  0  0  0
   -2.9184   -2.1203    0.0000 C   0  0  0  0  0  0  0  0  0  0  0  0
   -4.1319   -3.0020    0.0000 C   0  0  0  0  0  0  0  0  0  0  0  0
   -3.5285   -0.7500    0.0000 C   0  0  0  0  0  0  0  0  0  0  0  0
   -3.5285    0.7500    0.0000 N   0  0  0  0  0  0  0  0  0  0  0  0
   -4.9957    1.0619    0.0000 C   0  0  0  0  0  0  0  0  0  0  0  0
   -2.9184    2.1203    0.0000 C   0  0  0  0  0  0  0  0  0  0  0  0
   -1.8037    3.1240    0.0000 C   0  0  0  0  0  0  0  0  0  0  0  0
   -0.3771    3.5875    0.0000 O   0  0  0  0  0  0  0  0  0  0  0  0
    1.1147    3.4307    0.0000 C   0  0  0  0  0  0  0  0  0  0  0  0
    1.5782    4.8573    0.0000 O   0  0  0  0  0  0  0  0  0  0  0  0
    2.4138    2.6807    0.0000 C   0  0  0  0  0  0  0  0  0  0  0  0
    3.0475    3.8728    0.0000 C   0  0  0  0  0  0  0  0  0  0  0  0
    3.6090    4.4508    0.0000 O   0  0  0  0  0  0  0  0  0  0  0  0
    3.7658    5.9426    0.0000 C   0  0  0  0  0  0  0  0  0  0  0  0
    2.5523    6.8242    0.0000 C   0  0  0  0  0  0  0  0  0  0  0  0
    5.1361    6.5527    0.0000 C   0  0  0  0  0  0  0  0  0  0  0  0
    5.2929    8.0445    0.0000 O   0  0  0  0  0  0  0  0  0  0  0  0
  1  2  1  0
  2  3  1  0
  3  4  1  1
  3  5  1  0
  5  6  1  0
  6  7  1  6
  8  7  1  1
  8  9  1  0
  9 10  1  6
  9 11  1  0
 11 12  1  1
 13 12  1  1
 13 14  1  0
 14 15  1  0
 15 16  1  1
 15 17  1  0
 17 18  1  0
 18 19  1  1
 19 20  1  0
 19 21  1  0
 18 22  1  0
 22 23  1  6
 11 24  1  0
 24 25  1  6
 24 26  1  0
 24 27  1  0
 27 28  1  0
 28 29  1  1
 28 30  1  0
 30 31  1  6
 30 32  1  0
 32 33  1  6
 32 34  1  0
 34 35  1  0
 35 36  1  0
 35 37  1  0
 37 38  1  0
 38 39  1  0
 39 40  1  0
 40 41  2  0
 40 42  1  0
 42 43  1  6
  6 44  1  0
 44 45  1  0
 45 46  1  1
 45 47  1  0
 47 48  1  6
 47  3  1  0
 42  8  1  0
 22 13  1  0
M  END
>  <ChEMBL_IDs>  (191) 
CHEMBL1672769

>  <target_organism>  (191) 
None

>  <target_molecule_pref_name>  (191) 
nan

>  <# Known Targets>  (191) 
nan

>  <Known Targets>  (191) 
nan

>  <smiles>  (191) 
CO[C@]1(C)C[C@H](O[C@H]2[C@H](C)[C@@H](O[C@@H]3O[C@H](C)C[C@H](N(C)C)[C@H]3O)[C@@](C)(O)C[C@@H](C)[C@H](O)[C@H](C)CN(C)CCOC(=O)[C@@H]2C)O[C@@H](C)[C@@H]1O

$$$$

     RDKit          2D

 48 50  0  0  0  0  0  0  0  0999 V2000
    8.8706    6.2995    0.0000 C   0  0  0  0  0  0  0  0  0  0  0  0
    7.7915    5.2575    0.0000 O   0  0  0  0  0  0  0  0  0  0  0  0
    6.3497    5.6710    0.0000 C   0  0  0  0  0  0  0  0  0  0  0  0
    7.0072    7.0192    0.0000 C   0  0  0  0  0  0  0  0  0  0  0  0
    6.1929    4.1792    0.0000 C   0  0  0  0  0  0  0  0  0  0  0  0
    4.8225    3.5691    0.0000 C   0  0  0  0  0  0  0  0  0  0  0  0
    4.6658    2.0773    0.0000 O   0  0  0  0  0  0  0  0  0  0  0  0
    3.2954    1.4672    0.0000 C   0  0  0  0  0  0  0  0  0  0  0  0
    3.6073    0.0000    0.0000 C   0  0  0  0  0  0  0  0  0  0  0  0
    5.1073    0.0000    0.0000 C   0  0  0  0  0  0  0  0  0  0  0  0
    3.2954   -1.4672    0.0000 C   0  0  0  0  0  0  0  0  0  0  0  0
    4.6658   -2.0773    0.0000 O   0  0  0  0  0  0  0  0  0  0  0  0
    4.8225   -3.5691    0.0000 C   0  0  0  0  0  0  0  0  0  0  0  0
    3.6090   -4.4508    0.0000 O   0  0  0  0  0  0  0  0  0  0  0  0
    3.7658   -5.9426    0.0000 C   0  0  0  0  0  0  0  0  0  0  0  0
    2.5523   -6.8242    0.0000 C   0  0  0  0  0  0  0  0  0  0  0  0
    5.1361   -6.5527    0.0000 C   0  0  0  0  0  0  0  0  0  0  0  0
    6.3497   -5.6710    0.0000 C   0  0  0  0  0  0  0  0  0  0  0  0
    7.7200   -6.2811    0.0000 N   0  0  0  0  0  0  0  0  0  0  0  0
    7.8768   -7.7729    0.0000 C   0  0  0  0  0  0  0  0  0  0  0  0
    8.9335   -5.3994    0.0000 C   0  0  0  0  0  0  0  0  0  0  0  0
    6.1929   -4.1792    0.0000 C   0  0  0  0  0  0  0  0  0  0  0  0
    7.4064   -3.2975    0.0000 O   0  0  0  0  0  0  0  0  0  0  0  0
    2.4138   -2.6807    0.0000 C   0  0  0  0  0  0  0  0  0  0  0  0
    3.8692   -3.0436    0.0000 C   0  0  0  0  0  0  0  0  0  0  0  0
    2.6225   -4.1661    0.0000 O   0  0  0  0  0  0  0  0  0  0  0  0
    1.1147   -3.4307    0.0000 C   0  0  0  0  0  0  0  0  0  0  0  0
   -0.3771   -3.5875    0.0000 C   0  0  0  0  0  0  0  0  0  0  0  0
   -0.5339   -5.0793    0.0000 C   0  0  0  0  0  0  0  0  0  0  0  0
   -1.8037   -3.1240    0.0000 C   0  0  0  0  0  0  0  0  0  0  0  0
   -2.5537   -4.4231    0.0000 N   0  0  0  0  0  0  0  0  0  0  0  0
   -2.9184   -2.1203    0.0000 C   0  0  0  0  0  0  0  0  0  0  0  0
   -4.1319   -3.0020    0.0000 C   0  0  0  0  0  0  0  0  0  0  0  0
   -3.5285   -0.7500    0.0000 C   0  0  0  0  0  0  0  0  0  0  0  0
   -3.5285    0.7500    0.0000 N   0  0  0  0  0  0  0  0  0  0  0  0
   -4.9957    1.0619    0.0000 C   0  0  0  0  0  0  0  0  0  0  0  0
   -2.9184    2.1203    0.0000 C   0  0  0  0  0  0  0  0  0  0  0  0
   -1.8037    3.1240    0.0000 C   0  0  0  0  0  0  0  0  0  0  0  0
   -0.3771    3.5875    0.0000 O   0  0  0  0  0  0  0  0  0  0  0  0
    1.1147    3.4307    0.0000 C   0  0  0  0  0  0  0  0  0  0  0  0
    1.5782    4.8573    0.0000 O   0  0  0  0  0  0  0  0  0  0  0  0
    2.4138    2.6807    0.0000 C   0  0  0  0  0  0  0  0  0  0  0  0
    3.0475    3.8728    0.0000 C   0  0  0  0  0  0  0  0  0  0  0  0
    3.6090    4.4508    0.0000 O   0  0  0  0  0  0  0  0  0  0  0  0
    3.7658    5.9426    0.0000 C   0  0  0  0  0  0  0  0  0  0  0  0
    2.5523    6.8242    0.0000 C   0  0  0  0  0  0  0  0  0  0  0  0
    5.1361    6.5527    0.0000 C   0  0  0  0  0  0  0  0  0  0  0  0
    5.2929    8.0445    0.0000 O   0  0  0  0  0  0  0  0  0  0  0  0
  1  2  1  0
  2  3  1  0
  3  4  1  1
  3  5  1  0
  5  6  1  0
  6  7  1  6
  8  7  1  1
  8  9  1  0
  9 10  1  6
  9 11  1  0
 11 12  1  1
 13 12  1  1
 13 14  1  0
 14 15  1  0
 15 16  1  1
 15 17  1  0
 17 18  1  0
 18 19  1  1
 19 20  1  0
 19 21  1  0
 18 22  1  0
 22 23  1  6
 11 24  1  0
 24 25  1  1
 24 26  1  0
 24 27  1  0
 27 28  1  0
 28 29  1  1
 28 30  1  0
 30 31  1  6
 30 32  1  0
 32 33  1  6
 32 34  1  0
 34 35  1  0
 35 36  1  0
 35 37  1  0
 37 38  1  0
 38 39  1  0
 39 40  1  0
 40 41  2  0
 40 42  1  0
 42 43  1  6
  6 44  1  0
 44 45  1  0
 45 46  1  1
 45 47  1  0
 47 48  1  6
 47  3  1  0
 42  8  1  0
 22 13  1  0
M  END
>  <ChEMBL_IDs>  (192) 
CHEMBL2146793

>  <target_organism>  (192) 
Plasmodium falciparum

>  <target_molecule_pref_name>  (192) 
nan

>  <# Known Targets>  (192) 
nan

>  <Known Targets>  (192) 
nan

>  <smiles>  (192) 
CO[C@]1(C)C[C@H](O[C@H]2[C@H](C)[C@@H](O[C@@H]3O[C@H](C)C[C@H](N(C)C)[C@H]3O)[C@](C)(O)C[C@@H](C)[C@H](N)[C@H](C)CN(C)CCOC(=O)[C@@H]2C)O[C@@H](C)[C@@H]1O

$$$$

     RDKit          2D

 49 51  0  0  0  0  0  0  0  0999 V2000
    5.7207   -7.9939    0.0000 C   0  0  0  0  0  0  0  0  0  0  0  0
    5.5249   -6.5067    0.0000 O   0  0  0  0  0  0  0  0  0  0  0  0
    6.7150   -5.5936    0.0000 C   0  0  0  0  0  0  0  0  0  0  0  0
    6.5192   -4.1064    0.0000 C   0  0  0  0  0  0  0  0  0  0  0  0
    5.1333   -3.5324    0.0000 O   0  0  0  0  0  0  0  0  0  0  0  0
    4.9376   -2.0452    0.0000 C   0  0  0  0  0  0  0  0  0  0  0  0
    3.5517   -1.4712    0.0000 C   0  0  0  0  0  0  0  0  0  0  0  0
    3.8444    0.0000    0.0000 C   0  0  0  0  0  0  0  0  0  0  0  0
    3.5517    1.4712    0.0000 C   0  0  0  0  0  0  0  0  0  0  0  0
    2.7184    2.7184    0.0000 C   0  0  0  0  0  0  0  0  0  0  0  0
    1.4712    3.5517    0.0000 C   0  0  0  0  0  0  0  0  0  0  0  0
    0.0000    3.8444    0.0000 C   0  0  0  0  0  0  0  0  0  0  0  0
    0.0000    5.3444    0.0000 O   0  0  0  0  0  0  0  0  0  0  0  0
   -1.4712    3.5517    0.0000 C   0  0  0  0  0  0  0  0  0  0  0  0
   -2.0452    4.9376    0.0000 C   0  0  0  0  0  0  0  0  0  0  0  0
   -2.7184    2.7184    0.0000 C   0  0  0  0  0  0  0  0  0  0  0  0
   -3.5517    1.4712    0.0000 C   0  0  0  0  0  0  0  0  0  0  0  0
   -4.9376    2.0452    0.0000 C   0  0  0  0  0  0  0  0  0  0  0  0
   -3.8444    0.0000    0.0000 C   0  0  0  0  0  0  0  0  0  0  0  0
   -5.3444    0.0000    0.0000 O   0  0  0  0  0  0  0  0  0  0  0  0
   -6.0944   -1.2990    0.0000 C   0  0  0  0  0  0  0  0  0  0  0  0
   -5.3444   -2.5981    0.0000 O   0  0  0  0  0  0  0  0  0  0  0  0
   -6.0944   -3.8971    0.0000 C   0  0  0  0  0  0  0  0  0  0  0  0
   -5.3444   -5.1962    0.0000 C   0  0  0  0  0  0  0  0  0  0  0  0
   -7.5944   -3.8971    0.0000 C   0  0  0  0  0  0  0  0  0  0  0  0
   -8.3444   -2.5981    0.0000 C   0  0  0  0  0  0  0  0  0  0  0  0
   -9.4934   -3.5623    0.0000 O   0  0  0  0  0  0  0  0  0  0  0  0
   -9.4934   -1.6339    0.0000 C   0  0  0  0  0  0  0  0  0  0  0  0
   -9.2330   -0.1567    0.0000 C   0  0  0  0  0  0  0  0  0  0  0  0
  -10.9030   -2.1469    0.0000 O   0  0  0  0  0  0  0  0  0  0  0  0
   -7.5944   -1.2990    0.0000 C   0  0  0  0  0  0  0  0  0  0  0  0
   -8.3444   -0.0000    0.0000 O   0  0  0  0  0  0  0  0  0  0  0  0
   -3.5517   -1.4712    0.0000 C   0  0  0  0  0  0  0  0  0  0  0  0
   -4.5284   -2.1939    0.0000 C   0  0  0  0  0  0  0  0  0  0  0  0
   -2.7184   -2.7184    0.0000 C   0  0  0  0  0  0  0  0  0  0  0  0
   -1.4712   -3.5517    0.0000 C   0  0  0  0  0  0  0  0  0  0  0  0
   -0.0000   -3.8444    0.0000 C   0  0  0  0  0  0  0  0  0  0  0  0
   -0.0000   -5.3444    0.0000 O   0  0  0  0  0  0  0  0  0  0  0  0
    1.4712   -3.5517    0.0000 O   0  0  0  0  0  0  0  0  0  0  0  0
    2.7184   -2.7184    0.0000 C   0  0  0  0  0  0  0  0  0  0  0  0
    3.7790   -3.7790    0.0000 C   0  0  0  0  0  0  0  0  0  0  0  0
    7.7092   -3.1933    0.0000 O   0  0  0  0  0  0  0  0  0  0  0  0
    9.0950   -3.7673    0.0000 C   0  0  0  0  0  0  0  0  0  0  0  0
   10.2850   -2.8541    0.0000 C   0  0  0  0  0  0  0  0  0  0  0  0
    9.2908   -5.2544    0.0000 C   0  0  0  0  0  0  0  0  0  0  0  0
   10.6766   -5.8285    0.0000 O   0  0  0  0  0  0  0  0  0  0  0  0
    8.1008   -6.1676    0.0000 C   0  0  0  0  0  0  0  0  0  0  0  0
    8.2966   -7.6548    0.0000 O   0  0  0  0  0  0  0  0  0  0  0  0
    7.1065   -8.5679    0.0000 C   0  0  0  0  0  0  0  0  0  0  0  0
  1  2  1  0
  3  2  1  1
  3  4  1  0
  4  5  1  6
  5  6  1  0
  7  6  1  6
  7  8  1  0
  8  9  2  0
  9 10  1  0
 10 11  2  0
 11 12  1  0
 12 13  2  0
 12 14  1  0
 14 15  1  1
 14 16  1  0
 16 17  1  0
 17 18  1  1
 17 19  1  0
 19 20  1  1
 21 20  1  6
 21 22  1  0
 22 23  1  0
 23 24  1  6
 23 25  1  0
 25 26  1  0
 26 27  1  1
 26 28  1  0
 28 29  1  1
 28 30  1  0
 26 31  1  0
 31 32  1  1
 19 33  1  0
 33 34  1  6
 33 35  1  0
 35 36  2  0
 36 37  1  0
 37 38  2  0
 37 39  1  0
 39 40  1  0
 40 41  1  1
  4 42  1  0
 42 43  1  0
 43 44  1  6
 43 45  1  0
 45 46  1  1
 45 47  1  0
 47 48  1  1
 48 49  1  0
 47  3  1  0
 40  7  1  0
 31 21  1  0
M  END
>  <ChEMBL_IDs>  (193) 
CHEMBL4074054

>  <target_organism>  (193) 
Hepatitis C virus,None

>  <target_molecule_pref_name>  (193) 
nan

>  <# Known Targets>  (193) 
nan

>  <Known Targets>  (193) 
nan

>  <smiles>  (193) 
CO[C@H]1[C@H](OC[C@H]2/C=C/C=C/C(=O)[C@H](C)C[C@H](C)[C@H](O[C@@H]3O[C@H](C)C[C@](O)([C@H](C)O)[C@H]3O)[C@@H](C)/C=C/C(=O)O[C@@H]2C)O[C@H](C)[C@@H](O)[C@H]1OC

$$$$

     RDKit          2D

 49 51  0  0  0  0  0  0  0  0999 V2000
    5.7207   -7.9939    0.0000 C   0  0  0  0  0  0  0  0  0  0  0  0
    5.5249   -6.5067    0.0000 O   0  0  0  0  0  0  0  0  0  0  0  0
    6.7150   -5.5936    0.0000 C   0  0  0  0  0  0  0  0  0  0  0  0
    6.5192   -4.1064    0.0000 C   0  0  0  0  0  0  0  0  0  0  0  0
    5.1333   -3.5324    0.0000 O   0  0  0  0  0  0  0  0  0  0  0  0
    4.9376   -2.0452    0.0000 C   0  0  0  0  0  0  0  0  0  0  0  0
    3.5517   -1.4712    0.0000 C   0  0  0  0  0  0  0  0  0  0  0  0
    3.8444    0.0000    0.0000 C   0  0  0  0  0  0  0  0  0  0  0  0
    3.5517    1.4712    0.0000 C   0  0  0  0  0  0  0  0  0  0  0  0
    2.7184    2.7184    0.0000 C   0  0  0  0  0  0  0  0  0  0  0  0
    1.4712    3.5517    0.0000 C   0  0  0  0  0  0  0  0  0  0  0  0
    0.0000    3.8444    0.0000 C   0  0  0  0  0  0  0  0  0  0  0  0
    0.0000    5.3444    0.0000 O   0  0  0  0  0  0  0  0  0  0  0  0
   -1.4712    3.5517    0.0000 C   0  0  0  0  0  0  0  0  0  0  0  0
   -2.0452    4.9376    0.0000 C   0  0  0  0  0  0  0  0  0  0  0  0
   -2.7184    2.7184    0.0000 C   0  0  0  0  0  0  0  0  0  0  0  0
   -3.5517    1.4712    0.0000 C   0  0  0  0  0  0  0  0  0  0  0  0
   -4.9376    2.0452    0.0000 C   0  0  0  0  0  0  0  0  0  0  0  0
   -3.8444    0.0000    0.0000 C   0  0  0  0  0  0  0  0  0  0  0  0
   -5.3444    0.0000    0.0000 O   0  0  0  0  0  0  0  0  0  0  0  0
   -6.0944   -1.2990    0.0000 C   0  0  0  0  0  0  0  0  0  0  0  0
   -5.3444   -2.5981    0.0000 O   0  0  0  0  0  0  0  0  0  0  0  0
   -6.0944   -3.8971    0.0000 C   0  0  0  0  0  0  0  0  0  0  0  0
   -5.3444   -5.1962    0.0000 C   0  0  0  0  0  0  0  0  0  0  0  0
   -7.5944   -3.8971    0.0000 C   0  0  0  0  0  0  0  0  0  0  0  0
   -8.3444   -2.5981    0.0000 C   0  0  0  0  0  0  0  0  0  0  0  0
   -9.4934   -3.5623    0.0000 O   0  0  0  0  0  0  0  0  0  0  0  0
   -9.4934   -1.6339    0.0000 C   0  0  0  0  0  0  0  0  0  0  0  0
   -9.2330   -0.1567    0.0000 C   0  0  0  0  0  0  0  0  0  0  0  0
  -10.9030   -2.1469    0.0000 O   0  0  0  0  0  0  0  0  0  0  0  0
   -7.5944   -1.2990    0.0000 C   0  0  0  0  0  0  0  0  0  0  0  0
   -8.3444   -0.0000    0.0000 O   0  0  0  0  0  0  0  0  0  0  0  0
   -3.5517   -1.4712    0.0000 C   0  0  0  0  0  0  0  0  0  0  0  0
   -4.5284   -2.1939    0.0000 C   0  0  0  0  0  0  0  0  0  0  0  0
   -2.7184   -2.7184    0.0000 C   0  0  0  0  0  0  0  0  0  0  0  0
   -1.4712   -3.5517    0.0000 C   0  0  0  0  0  0  0  0  0  0  0  0
   -0.0000   -3.8444    0.0000 C   0  0  0  0  0  0  0  0  0  0  0  0
   -0.0000   -5.3444    0.0000 O   0  0  0  0  0  0  0  0  0  0  0  0
    1.4712   -3.5517    0.0000 O   0  0  0  0  0  0  0  0  0  0  0  0
    2.7184   -2.7184    0.0000 C   0  0  0  0  0  0  0  0  0  0  0  0
    3.7790   -3.7790    0.0000 C   0  0  0  0  0  0  0  0  0  0  0  0
    7.7092   -3.1933    0.0000 O   0  0  0  0  0  0  0  0  0  0  0  0
    9.0950   -3.7673    0.0000 C   0  0  0  0  0  0  0  0  0  0  0  0
   10.2850   -2.8541    0.0000 C   0  0  0  0  0  0  0  0  0  0  0  0
    9.2908   -5.2544    0.0000 C   0  0  0  0  0  0  0  0  0  0  0  0
   10.6766   -5.8285    0.0000 O   0  0  0  0  0  0  0  0  0  0  0  0
    8.1008   -6.1676    0.0000 C   0  0  0  0  0  0  0  0  0  0  0  0
    8.2966   -7.6548    0.0000 O   0  0  0  0  0  0  0  0  0  0  0  0
    7.1065   -8.5679    0.0000 C   0  0  0  0  0  0  0  0  0  0  0  0
  1  2  1  0
  2  3  1  0
  3  4  1  0
  4  5  1  0
  5  6  1  0
  6  7  1  0
  7  8  1  0
  8  9  2  0
  9 10  1  0
 10 11  2  0
 11 12  1  0
 12 13  2  0
 12 14  1  0
 14 15  1  0
 14 16  1  0
 16 17  1  0
 17 18  1  0
 17 19  1  0
 19 20  1  0
 20 21  1  0
 21 22  1  0
 22 23  1  0
 23 24  1  0
 23 25  1  0
 25 26  1  0
 26 27  1  0
 26 28  1  0
 28 29  1  0
 28 30  1  0
 26 31  1  0
 31 32  1  0
 19 33  1  0
 33 34  1  0
 33 35  1  0
 35 36  2  0
 36 37  1  0
 37 38  2  0
 37 39  1  0
 39 40  1  0
 40 41  1  0
  4 42  1  0
 42 43  1  0
 43 44  1  0
 43 45  1  0
 45 46  1  0
 45 47  1  0
 47 48  1  0
 48 49  1  0
 47  3  1  0
 40  7  1  0
 31 21  1  0
M  END
>  <ChEMBL_IDs>  (194) 
nan

>  <target_organism>  (194) 
nan

>  <target_molecule_pref_name>  (194) 
nan

>  <# Known Targets>  (194) 
nan

>  <Known Targets>  (194) 
nan

>  <smiles>  (194) 
COC1C(OCC2/C=C\C=C/C(=O)C(C)CC(C)C(OC3OC(C)CC(O)(C(C)O)C3O)C(C)/C=C\C(=O)OC2C)OC(C)C(O)C1OC

$$$$

     RDKit          2D

 50 52  0  0  0  0  0  0  0  0999 V2000
    5.7207   -7.9939    0.0000 C   0  0  0  0  0  0  0  0  0  0  0  0
    5.5249   -6.5067    0.0000 O   0  0  0  0  0  0  0  0  0  0  0  0
    6.7150   -5.5936    0.0000 C   0  0  0  0  0  0  0  0  0  0  0  0
    6.5192   -4.1064    0.0000 C   0  0  0  0  0  0  0  0  0  0  0  0
    5.1333   -3.5324    0.0000 O   0  0  0  0  0  0  0  0  0  0  0  0
    4.9376   -2.0452    0.0000 C   0  0  0  0  0  0  0  0  0  0  0  0
    3.5517   -1.4712    0.0000 C   0  0  0  0  0  0  0  0  0  0  0  0
    3.8444    0.0000    0.0000 C   0  0  0  0  0  0  0  0  0  0  0  0
    3.5517    1.4712    0.0000 C   0  0  0  0  0  0  0  0  0  0  0  0
    2.7184    2.7184    0.0000 C   0  0  0  0  0  0  0  0  0  0  0  0
    1.4712    3.5517    0.0000 C   0  0  0  0  0  0  0  0  0  0  0  0
    0.0000    3.8444    0.0000 C   0  0  0  0  0  0  0  0  0  0  0  0
    0.0000    5.3444    0.0000 O   0  0  0  0  0  0  0  0  0  0  0  0
   -1.4712    3.5517    0.0000 C   0  0  0  0  0  0  0  0  0  0  0  0
   -2.7184    4.3851    0.0000 C   0  0  0  0  0  0  0  0  0  0  0  0
   -1.1785    5.0229    0.0000 O   0  0  0  0  0  0  0  0  0  0  0  0
   -2.7184    2.7184    0.0000 C   0  0  0  0  0  0  0  0  0  0  0  0
   -3.5517    1.4712    0.0000 C   0  0  0  0  0  0  0  0  0  0  0  0
   -4.9376    2.0452    0.0000 C   0  0  0  0  0  0  0  0  0  0  0  0
   -3.8444    0.0000    0.0000 C   0  0  0  0  0  0  0  0  0  0  0  0
   -5.3444    0.0000    0.0000 O   0  0  0  0  0  0  0  0  0  0  0  0
   -6.0944   -1.2990    0.0000 C   0  0  0  0  0  0  0  0  0  0  0  0
   -5.3444   -2.5981    0.0000 O   0  0  0  0  0  0  0  0  0  0  0  0
   -6.0944   -3.8971    0.0000 C   0  0  0  0  0  0  0  0  0  0  0  0
   -5.3444   -5.1962    0.0000 C   0  0  0  0  0  0  0  0  0  0  0  0
   -7.5944   -3.8971    0.0000 C   0  0  0  0  0  0  0  0  0  0  0  0
   -8.3444   -2.5981    0.0000 C   0  0  0  0  0  0  0  0  0  0  0  0
   -9.4934   -3.5623    0.0000 O   0  0  0  0  0  0  0  0  0  0  0  0
   -9.4934   -1.6339    0.0000 C   0  0  0  0  0  0  0  0  0  0  0  0
   -9.2330   -0.1567    0.0000 C   0  0  0  0  0  0  0  0  0  0  0  0
  -10.9030   -2.1469    0.0000 O   0  0  0  0  0  0  0  0  0  0  0  0
   -7.5944   -1.2990    0.0000 C   0  0  0  0  0  0  0  0  0  0  0  0
   -8.3444   -0.0000    0.0000 O   0  0  0  0  0  0  0  0  0  0  0  0
   -3.5517   -1.4712    0.0000 C   0  0  0  0  0  0  0  0  0  0  0  0
   -4.5284   -2.1939    0.0000 C   0  0  0  0  0  0  0  0  0  0  0  0
   -2.7184   -2.7184    0.0000 C   0  0  0  0  0  0  0  0  0  0  0  0
   -1.4712   -3.5517    0.0000 C   0  0  0  0  0  0  0  0  0  0  0  0
   -0.0000   -3.8444    0.0000 C   0  0  0  0  0  0  0  0  0  0  0  0
   -0.0000   -5.3444    0.0000 O   0  0  0  0  0  0  0  0  0  0  0  0
    1.4712   -3.5517    0.0000 O   0  0  0  0  0  0  0  0  0  0  0  0
    2.7184   -2.7184    0.0000 C   0  0  0  0  0  0  0  0  0  0  0  0
    3.7790   -3.7790    0.0000 C   0  0  0  0  0  0  0  0  0  0  0  0
    7.7092   -3.1933    0.0000 O   0  0  0  0  0  0  0  0  0  0  0  0
    9.0950   -3.7673    0.0000 C   0  0  0  0  0  0  0  0  0  0  0  0
   10.2850   -2.8541    0.0000 C   0  0  0  0  0  0  0  0  0  0  0  0
    9.2908   -5.2544    0.0000 C   0  0  0  0  0  0  0  0  0  0  0  0
   10.6766   -5.8285    0.0000 O   0  0  0  0  0  0  0  0  0  0  0  0
    8.1008   -6.1676    0.0000 C   0  0  0  0  0  0  0  0  0  0  0  0
    8.2966   -7.6548    0.0000 O   0  0  0  0  0  0  0  0  0  0  0  0
    7.1065   -8.5679    0.0000 C   0  0  0  0  0  0  0  0  0  0  0  0
  1  2  1  0
  3  2  1  1
  3  4  1  0
  4  5  1  6
  5  6  1  0
  7  6  1  6
  7  8  1  0
  8  9  2  0
  9 10  1  0
 10 11  2  0
 11 12  1  0
 12 13  2  0
 12 14  1  0
 14 15  1  1
 14 16  1  0
 14 17  1  0
 17 18  1  0
 18 19  1  1
 18 20  1  0
 20 21  1  1
 22 21  1  6
 22 23  1  0
 23 24  1  0
 24 25  1  6
 24 26  1  0
 26 27  1  0
 27 28  1  1
 27 29  1  0
 29 30  1  1
 29 31  1  0
 27 32  1  0
 32 33  1  1
 20 34  1  0
 34 35  1  6
 34 36  1  0
 36 37  2  0
 37 38  1  0
 38 39  2  0
 38 40  1  0
 40 41  1  0
 41 42  1  1
  4 43  1  0
 43 44  1  0
 44 45  1  6
 44 46  1  0
 46 47  1  1
 46 48  1  0
 48 49  1  1
 49 50  1  0
 48  3  1  0
 41  7  1  0
 32 22  1  0
M  END
>  <ChEMBL_IDs>  (195) 
CHEMBL4098229

>  <target_organism>  (195) 
Hepatitis C virus,None

>  <target_molecule_pref_name>  (195) 
nan

>  <# Known Targets>  (195) 
nan

>  <Known Targets>  (195) 
nan

>  <smiles>  (195) 
CO[C@H]1[C@H](OC[C@H]2/C=C/C=C/C(=O)[C@@](C)(O)C[C@H](C)[C@H](O[C@@H]3O[C@H](C)C[C@](O)([C@H](C)O)[C@H]3O)[C@@H](C)/C=C/C(=O)O[C@@H]2C)O[C@H](C)[C@@H](O)[C@H]1OC

$$$$

     RDKit          2D

 48 50  0  0  0  0  0  0  0  0999 V2000
    6.0944   -1.2990    0.0000 C   0  0  0  0  0  0  0  0  0  0  0  0
    5.3444    0.0000    0.0000 C   0  0  0  0  0  0  0  0  0  0  0  0
    3.8444    0.0000    0.0000 C   0  0  0  0  0  0  0  0  0  0  0  0
    3.5517   -1.4712    0.0000 O   0  0  0  0  0  0  0  0  0  0  0  0
    2.7184   -2.7184    0.0000 C   0  0  0  0  0  0  0  0  0  0  0  0
    3.7790   -3.7790    0.0000 O   0  0  0  0  0  0  0  0  0  0  0  0
    1.4712   -3.5517    0.0000 C   0  0  0  0  0  0  0  0  0  0  0  0
   -0.0000   -3.8444    0.0000 C   0  0  0  0  0  0  0  0  0  0  0  0
   -1.4712   -3.5517    0.0000 C   0  0  0  0  0  0  0  0  0  0  0  0
   -1.6507   -4.7534    0.0000 C   0  0  0  0  0  0  0  0  0  0  0  0
   -2.7184   -2.7184    0.0000 C   0  0  0  0  0  0  0  0  0  0  0  0
   -3.7790   -3.7790    0.0000 O   0  0  0  0  0  0  0  0  0  0  0  0
   -3.3908   -5.2279    0.0000 C   0  0  0  0  0  0  0  0  0  0  0  0
   -1.9419   -5.6162    0.0000 O   0  0  0  0  0  0  0  0  0  0  0  0
   -1.5537   -7.0650    0.0000 C   0  0  0  0  0  0  0  0  0  0  0  0
   -0.1048   -7.4533    0.0000 C   0  0  0  0  0  0  0  0  0  0  0  0
   -2.6144   -8.1257    0.0000 C   0  0  0  0  0  0  0  0  0  0  0  0
   -4.0632   -7.7375    0.0000 C   0  0  0  0  0  0  0  0  0  0  0  0
   -5.1239   -8.7981    0.0000 N   0  0  0  0  0  0  0  0  0  0  0  0
   -4.7357  -10.2470    0.0000 C   0  0  0  0  0  0  0  0  0  0  0  0
   -6.5728   -8.4099    0.0000 C   0  0  0  0  0  0  0  0  0  0  0  0
   -4.4515   -6.2886    0.0000 C   0  0  0  0  0  0  0  0  0  0  0  0
   -5.9004   -5.9004    0.0000 O   0  0  0  0  0  0  0  0  0  0  0  0
   -3.5517   -1.4712    0.0000 C   0  0  0  0  0  0  0  0  0  0  0  0
   -4.9376   -2.0452    0.0000 C   0  0  0  0  0  0  0  0  0  0  0  0
   -3.8444    0.0000    0.0000 C   0  0  0  0  0  0  0  0  0  0  0  0
   -3.5517    1.4712    0.0000 C   0  0  0  0  0  0  0  0  0  0  0  0
   -4.9376    2.0452    0.0000 C   0  0  0  0  0  0  0  0  0  0  0  0
   -2.7184    2.7184    0.0000 C   0  0  0  0  0  0  0  0  0  0  0  0
   -3.7790    3.7790    0.0000 O   0  0  0  0  0  0  0  0  0  0  0  0
   -1.4712    3.5517    0.0000 C   0  0  0  0  0  0  0  0  0  0  0  0
    0.0000    3.8444    0.0000 C   0  0  0  0  0  0  0  0  0  0  0  0
    1.4712    3.5517    0.0000 C   0  0  0  0  0  0  0  0  0  0  0  0
    2.7184    2.7184    0.0000 C   0  0  0  0  0  0  0  0  0  0  0  0
    3.5517    1.4712    0.0000 C   0  0  0  0  0  0  0  0  0  0  0  0
    4.9376    2.0452    0.0000 C   0  0  0  0  0  0  0  0  0  0  0  0
    6.1276    1.1321    0.0000 O   0  0  0  0  0  0  0  0  0  0  0  0
    7.5134    1.7061    0.0000 C   0  0  0  0  0  0  0  0  0  0  0  0
    8.7034    0.7929    0.0000 O   0  0  0  0  0  0  0  0  0  0  0  0
   10.0893    1.3670    0.0000 C   0  0  0  0  0  0  0  0  0  0  0  0
   11.2793    0.4538    0.0000 C   0  0  0  0  0  0  0  0  0  0  0  0
   10.2850    2.8541    0.0000 C   0  0  0  0  0  0  0  0  0  0  0  0
   11.6709    3.4282    0.0000 O   0  0  0  0  0  0  0  0  0  0  0  0
    9.0950    3.7673    0.0000 C   0  0  0  0  0  0  0  0  0  0  0  0
    9.2908    5.2544    0.0000 O   0  0  0  0  0  0  0  0  0  0  0  0
    7.7092    3.1933    0.0000 C   0  0  0  0  0  0  0  0  0  0  0  0
    6.5192    4.1064    0.0000 O   0  0  0  0  0  0  0  0  0  0  0  0
    6.7150    5.5936    0.0000 C   0  0  0  0  0  0  0  0  0  0  0  0
  1  2  1  0
  2  3  1  0
  3  4  1  0
  4  5  1  0
  5  6  2  0
  5  7  1  0
  7  8  2  0
  8  9  1  0
  9 10  1  0
  9 11  1  0
 11 12  1  0
 12 13  1  0
 13 14  1  0
 14 15  1  0
 15 16  1  0
 15 17  1  0
 17 18  1  0
 18 19  1  0
 19 20  1  0
 19 21  1  0
 18 22  1  0
 22 23  1  0
 11 24  1  0
 24 25  1  0
 24 26  1  0
 26 27  1  0
 27 28  1  0
 27 29  1  0
 29 30  2  0
 29 31  1  0
 31 32  2  0
 32 33  1  0
 33 34  2  0
 34 35  1  0
 35 36  1  0
 36 37  1  0
 37 38  1  0
 38 39  1  0
 39 40  1  0
 40 41  1  0
 40 42  1  0
 42 43  1  0
 42 44  1  0
 44 45  1  0
 44 46  1  0
 46 47  1  0
 47 48  1  0
 35  3  1  0
 46 38  1  0
 22 13  1  0
M  END
>  <ChEMBL_IDs>  (196) 
nan

>  <target_organism>  (196) 
nan

>  <target_molecule_pref_name>  (196) 
nan

>  <# Known Targets>  (196) 
nan

>  <Known Targets>  (196) 
nan

>  <smiles>  (196) 
CCC1OC(=O)/C=C\C(C)C(OC2OC(C)CC(N(C)C)C2O)C(C)CC(C)C(=O)/C=C\C=C/C1COC1OC(C)C(O)C(O)C1OC

$$$$

     RDKit          2D

 48 50  0  0  0  0  0  0  0  0999 V2000
    6.0944   -1.2990    0.0000 C   0  0  0  0  0  0  0  0  0  0  0  0
    5.3444    0.0000    0.0000 C   0  0  0  0  0  0  0  0  0  0  0  0
    3.8444    0.0000    0.0000 C   0  0  0  0  0  0  0  0  0  0  0  0
    3.5517   -1.4712    0.0000 O   0  0  0  0  0  0  0  0  0  0  0  0
    2.7184   -2.7184    0.0000 C   0  0  0  0  0  0  0  0  0  0  0  0
    3.7790   -3.7790    0.0000 O   0  0  0  0  0  0  0  0  0  0  0  0
    1.4712   -3.5517    0.0000 C   0  0  0  0  0  0  0  0  0  0  0  0
   -0.0000   -3.8444    0.0000 C   0  0  0  0  0  0  0  0  0  0  0  0
   -1.4712   -3.5517    0.0000 C   0  0  0  0  0  0  0  0  0  0  0  0
   -1.6507   -4.7534    0.0000 C   0  0  0  0  0  0  0  0  0  0  0  0
   -2.7184   -2.7184    0.0000 C   0  0  0  0  0  0  0  0  0  0  0  0
   -3.7790   -3.7790    0.0000 O   0  0  0  0  0  0  0  0  0  0  0  0
   -3.3908   -5.2279    0.0000 C   0  0  0  0  0  0  0  0  0  0  0  0
   -1.9419   -5.6162    0.0000 O   0  0  0  0  0  0  0  0  0  0  0  0
   -1.5537   -7.0650    0.0000 C   0  0  0  0  0  0  0  0  0  0  0  0
   -0.1048   -7.4533    0.0000 C   0  0  0  0  0  0  0  0  0  0  0  0
   -2.6144   -8.1257    0.0000 C   0  0  0  0  0  0  0  0  0  0  0  0
   -4.0632   -7.7375    0.0000 C   0  0  0  0  0  0  0  0  0  0  0  0
   -5.1239   -8.7981    0.0000 N   0  0  0  0  0  0  0  0  0  0  0  0
   -4.7357  -10.2470    0.0000 C   0  0  0  0  0  0  0  0  0  0  0  0
   -6.5728   -8.4099    0.0000 C   0  0  0  0  0  0  0  0  0  0  0  0
   -4.4515   -6.2886    0.0000 C   0  0  0  0  0  0  0  0  0  0  0  0
   -5.9004   -5.9004    0.0000 O   0  0  0  0  0  0  0  0  0  0  0  0
   -3.5517   -1.4712    0.0000 C   0  0  0  0  0  0  0  0  0  0  0  0
   -4.9376   -2.0452    0.0000 C   0  0  0  0  0  0  0  0  0  0  0  0
   -3.8444    0.0000    0.0000 C   0  0  0  0  0  0  0  0  0  0  0  0
   -3.5517    1.4712    0.0000 C   0  0  0  0  0  0  0  0  0  0  0  0
   -4.9376    2.0452    0.0000 C   0  0  0  0  0  0  0  0  0  0  0  0
   -2.7184    2.7184    0.0000 C   0  0  0  0  0  0  0  0  0  0  0  0
   -3.7790    3.7790    0.0000 O   0  0  0  0  0  0  0  0  0  0  0  0
   -1.4712    3.5517    0.0000 C   0  0  0  0  0  0  0  0  0  0  0  0
    0.0000    3.8444    0.0000 C   0  0  0  0  0  0  0  0  0  0  0  0
    1.4712    3.5517    0.0000 C   0  0  0  0  0  0  0  0  0  0  0  0
    2.7184    2.7184    0.0000 C   0  0  0  0  0  0  0  0  0  0  0  0
    3.5517    1.4712    0.0000 C   0  0  0  0  0  0  0  0  0  0  0  0
    4.9376    2.0452    0.0000 C   0  0  0  0  0  0  0  0  0  0  0  0
    6.1276    1.1321    0.0000 O   0  0  0  0  0  0  0  0  0  0  0  0
    7.5134    1.7061    0.0000 C   0  0  0  0  0  0  0  0  0  0  0  0
    8.7034    0.7929    0.0000 O   0  0  0  0  0  0  0  0  0  0  0  0
   10.0893    1.3670    0.0000 C   0  0  0  0  0  0  0  0  0  0  0  0
   11.2793    0.4538    0.0000 C   0  0  0  0  0  0  0  0  0  0  0  0
   10.2850    2.8541    0.0000 C   0  0  0  0  0  0  0  0  0  0  0  0
   11.6709    3.4282    0.0000 O   0  0  0  0  0  0  0  0  0  0  0  0
    9.0950    3.7673    0.0000 C   0  0  0  0  0  0  0  0  0  0  0  0
    9.2908    5.2544    0.0000 O   0  0  0  0  0  0  0  0  0  0  0  0
    7.7092    3.1933    0.0000 C   0  0  0  0  0  0  0  0  0  0  0  0
    6.5192    4.1064    0.0000 O   0  0  0  0  0  0  0  0  0  0  0  0
    6.7150    5.5936    0.0000 C   0  0  0  0  0  0  0  0  0  0  0  0
  1  2  1  0
  2  3  1  0
  3  4  1  0
  4  5  1  0
  5  6  2  0
  5  7  1  0
  7  8  2  0
  8  9  1  0
  9 10  1  0
  9 11  1  0
 11 12  1  0
 12 13  1  0
 13 14  1  0
 14 15  1  0
 15 16  1  0
 15 17  1  0
 17 18  1  0
 18 19  1  0
 19 20  1  0
 19 21  1  0
 18 22  1  0
 22 23  1  0
 11 24  1  0
 24 25  1  0
 24 26  1  0
 26 27  1  0
 27 28  1  0
 27 29  1  0
 29 30  2  0
 29 31  1  0
 31 32  2  0
 32 33  1  0
 33 34  2  0
 34 35  1  0
 35 36  1  0
 36 37  1  0
 37 38  1  0
 38 39  1  0
 39 40  1  0
 40 41  1  0
 40 42  1  0
 42 43  1  0
 42 44  1  0
 44 45  1  0
 44 46  1  0
 46 47  1  0
 47 48  1  0
 35  3  1  0
 46 38  1  0
 22 13  1  0
M  END
>  <ChEMBL_IDs>  (197) 
nan

>  <target_organism>  (197) 
nan

>  <target_molecule_pref_name>  (197) 
nan

>  <# Known Targets>  (197) 
nan

>  <Known Targets>  (197) 
nan

>  <smiles>  (197) 
CCC1OC(=O)/C=C\C(C)C(OC2OC(C)CC(N(C)C)C2O)C(C)CC(C)C(=O)/C=C\C=C/C1COC1OC(C)C(O)C(O)C1OC

$$$$

     RDKit          2D

 49 51  0  0  0  0  0  0  0  0999 V2000
    6.0944   -1.2990    0.0000 C   0  0  0  0  0  0  0  0  0  0  0  0
    5.3444    0.0000    0.0000 C   0  0  0  0  0  0  0  0  0  0  0  0
    3.8444    0.0000    0.0000 C   0  0  0  0  0  0  0  0  0  0  0  0
    3.5517   -1.4712    0.0000 O   0  0  0  0  0  0  0  0  0  0  0  0
    2.7184   -2.7184    0.0000 C   0  0  0  0  0  0  0  0  0  0  0  0
    3.7790   -3.7790    0.0000 O   0  0  0  0  0  0  0  0  0  0  0  0
    1.4712   -3.5517    0.0000 C   0  0  0  0  0  0  0  0  0  0  0  0
   -0.0000   -3.8444    0.0000 C   0  0  0  0  0  0  0  0  0  0  0  0
   -1.4712   -3.5517    0.0000 C   0  0  0  0  0  0  0  0  0  0  0  0
   -1.6507   -4.7534    0.0000 C   0  0  0  0  0  0  0  0  0  0  0  0
   -2.7184   -2.7184    0.0000 C   0  0  0  0  0  0  0  0  0  0  0  0
   -3.7790   -3.7790    0.0000 O   0  0  0  0  0  0  0  0  0  0  0  0
   -3.3908   -5.2279    0.0000 C   0  0  0  0  0  0  0  0  0  0  0  0
   -1.9419   -5.6162    0.0000 O   0  0  0  0  0  0  0  0  0  0  0  0
   -1.5537   -7.0650    0.0000 C   0  0  0  0  0  0  0  0  0  0  0  0
   -0.1048   -7.4533    0.0000 C   0  0  0  0  0  0  0  0  0  0  0  0
   -2.6144   -8.1257    0.0000 C   0  0  0  0  0  0  0  0  0  0  0  0
   -4.0632   -7.7375    0.0000 C   0  0  0  0  0  0  0  0  0  0  0  0
   -5.1239   -8.7981    0.0000 N   0  0  0  0  0  0  0  0  0  0  0  0
   -4.7357  -10.2470    0.0000 C   0  0  0  0  0  0  0  0  0  0  0  0
   -6.5728   -8.4099    0.0000 C   0  0  0  0  0  0  0  0  0  0  0  0
   -4.4515   -6.2886    0.0000 C   0  0  0  0  0  0  0  0  0  0  0  0
   -5.9004   -5.9004    0.0000 O   0  0  0  0  0  0  0  0  0  0  0  0
   -3.5517   -1.4712    0.0000 C   0  0  0  0  0  0  0  0  0  0  0  0
   -4.9376   -2.0452    0.0000 C   0  0  0  0  0  0  0  0  0  0  0  0
   -3.8444    0.0000    0.0000 C   0  0  0  0  0  0  0  0  0  0  0  0
   -3.5517    1.4712    0.0000 C   0  0  0  0  0  0  0  0  0  0  0  0
   -4.9376    2.0452    0.0000 C   0  0  0  0  0  0  0  0  0  0  0  0
   -2.7184    2.7184    0.0000 C   0  0  0  0  0  0  0  0  0  0  0  0
   -3.7790    3.7790    0.0000 O   0  0  0  0  0  0  0  0  0  0  0  0
   -1.4712    3.5517    0.0000 C   0  0  0  0  0  0  0  0  0  0  0  0
    0.0000    3.8444    0.0000 C   0  0  0  0  0  0  0  0  0  0  0  0
    1.4712    3.5517    0.0000 C   0  0  0  0  0  0  0  0  0  0  0  0
    2.7184    2.7184    0.0000 C   0  0  0  0  0  0  0  0  0  0  0  0
    3.5517    1.4712    0.0000 C   0  0  0  0  0  0  0  0  0  0  0  0
    5.0229    1.1785    0.0000 O   0  0  0  0  0  0  0  0  0  0  0  0
    4.3851    2.7184    0.0000 C   0  0  0  0  0  0  0  0  0  0  0  0
    5.8819    2.6203    0.0000 O   0  0  0  0  0  0  0  0  0  0  0  0
    6.7152    3.8675    0.0000 C   0  0  0  0  0  0  0  0  0  0  0  0
    8.2120    3.7694    0.0000 O   0  0  0  0  0  0  0  0  0  0  0  0
    9.0454    5.0166    0.0000 C   0  0  0  0  0  0  0  0  0  0  0  0
   10.5422    4.9185    0.0000 C   0  0  0  0  0  0  0  0  0  0  0  0
    8.3819    6.3619    0.0000 C   0  0  0  0  0  0  0  0  0  0  0  0
    9.2153    7.6091    0.0000 O   0  0  0  0  0  0  0  0  0  0  0  0
    6.8852    6.4600    0.0000 C   0  0  0  0  0  0  0  0  0  0  0  0
    6.2217    7.8053    0.0000 O   0  0  0  0  0  0  0  0  0  0  0  0
    6.0518    5.2128    0.0000 C   0  0  0  0  0  0  0  0  0  0  0  0
    4.5550    5.3109    0.0000 O   0  0  0  0  0  0  0  0  0  0  0  0
    3.8916    6.6562    0.0000 C   0  0  0  0  0  0  0  0  0  0  0  0
  1  2  1  0
  2  3  1  0
  3  4  1  0
  4  5  1  0
  5  6  2  0
  5  7  1  0
  7  8  2  0
  8  9  1  0
  9 10  1  0
  9 11  1  0
 11 12  1  0
 12 13  1  0
 13 14  1  0
 14 15  1  0
 15 16  1  0
 15 17  1  0
 17 18  1  0
 18 19  1  0
 19 20  1  0
 19 21  1  0
 18 22  1  0
 22 23  1  0
 11 24  1  0
 24 25  1  0
 24 26  1  0
 26 27  1  0
 27 28  1  0
 27 29  1  0
 29 30  2  0
 29 31  1  0
 31 32  2  0
 32 33  1  0
 33 34  2  0
 34 35  1  0
 35 36  1  0
 35 37  1  0
 37 38  1  0
 38 39  1  0
 39 40  1  0
 40 41  1  0
 41 42  1  0
 41 43  1  0
 43 44  1  0
 43 45  1  0
 45 46  1  0
 45 47  1  0
 47 48  1  0
 48 49  1  0
 35  3  1  0
 47 39  1  0
 22 13  1  0
M  END
>  <ChEMBL_IDs>  (198) 
nan

>  <target_organism>  (198) 
nan

>  <target_molecule_pref_name>  (198) 
nan

>  <# Known Targets>  (198) 
nan

>  <Known Targets>  (198) 
nan

>  <smiles>  (198) 
CCC1OC(=O)/C=C\C(C)C(OC2OC(C)CC(N(C)C)C2O)C(C)CC(C)C(=O)/C=C\C=C/C1(O)COC1OC(C)C(O)C(O)C1OC

$$$$

     RDKit          2D

 49 51  0  0  0  0  0  0  0  0999 V2000
    6.0944   -1.2990    0.0000 C   0  0  0  0  0  0  0  0  0  0  0  0
    5.3444    0.0000    0.0000 C   0  0  0  0  0  0  0  0  0  0  0  0
    3.8444    0.0000    0.0000 C   0  0  0  0  0  0  0  0  0  0  0  0
    3.5517   -1.4712    0.0000 O   0  0  0  0  0  0  0  0  0  0  0  0
    2.7184   -2.7184    0.0000 C   0  0  0  0  0  0  0  0  0  0  0  0
    3.7790   -3.7790    0.0000 O   0  0  0  0  0  0  0  0  0  0  0  0
    1.4712   -3.5517    0.0000 C   0  0  0  0  0  0  0  0  0  0  0  0
   -0.0000   -3.8444    0.0000 C   0  0  0  0  0  0  0  0  0  0  0  0
   -1.4712   -3.5517    0.0000 C   0  0  0  0  0  0  0  0  0  0  0  0
   -2.7184   -2.7184    0.0000 C   0  0  0  0  0  0  0  0  0  0  0  0
   -3.7790   -3.7790    0.0000 O   0  0  0  0  0  0  0  0  0  0  0  0
   -3.3908   -5.2279    0.0000 C   0  0  0  0  0  0  0  0  0  0  0  0
   -4.4515   -6.2886    0.0000 O   0  0  0  0  0  0  0  0  0  0  0  0
   -4.0632   -7.7375    0.0000 C   0  0  0  0  0  0  0  0  0  0  0  0
   -5.1239   -8.7981    0.0000 C   0  0  0  0  0  0  0  0  0  0  0  0
   -2.6144   -8.1257    0.0000 C   0  0  0  0  0  0  0  0  0  0  0  0
   -1.5537   -7.0650    0.0000 C   0  0  0  0  0  0  0  0  0  0  0  0
   -0.1048   -7.4533    0.0000 N   0  0  0  0  0  0  0  0  0  0  0  0
    0.2834   -8.9022    0.0000 C   0  0  0  0  0  0  0  0  0  0  0  0
    0.9559   -6.3926    0.0000 C   0  0  0  0  0  0  0  0  0  0  0  0
   -1.9419   -5.6162    0.0000 C   0  0  0  0  0  0  0  0  0  0  0  0
   -0.8813   -4.5555    0.0000 O   0  0  0  0  0  0  0  0  0  0  0  0
   -3.5517   -1.4712    0.0000 C   0  0  0  0  0  0  0  0  0  0  0  0
   -4.9376   -2.0452    0.0000 C   0  0  0  0  0  0  0  0  0  0  0  0
   -3.8444    0.0000    0.0000 C   0  0  0  0  0  0  0  0  0  0  0  0
   -3.5517    1.4712    0.0000 C   0  0  0  0  0  0  0  0  0  0  0  0
   -4.9376    2.0452    0.0000 C   0  0  0  0  0  0  0  0  0  0  0  0
   -2.7184    2.7184    0.0000 C   0  0  0  0  0  0  0  0  0  0  0  0
   -3.7790    3.7790    0.0000 O   0  0  0  0  0  0  0  0  0  0  0  0
   -1.4712    3.5517    0.0000 C   0  0  0  0  0  0  0  0  0  0  0  0
    0.0000    3.8444    0.0000 C   0  0  0  0  0  0  0  0  0  0  0  0
    1.4712    3.5517    0.0000 C   0  0  0  0  0  0  0  0  0  0  0  0
    2.7184    2.7184    0.0000 C   0  0  0  0  0  0  0  0  0  0  0  0
    3.5517    1.4712    0.0000 C   0  0  0  0  0  0  0  0  0  0  0  0
    5.0229    1.1785    0.0000 O   0  0  0  0  0  0  0  0  0  0  0  0
    4.3851    2.7184    0.0000 C   0  0  0  0  0  0  0  0  0  0  0  0
    5.8819    2.6203    0.0000 O   0  0  0  0  0  0  0  0  0  0  0  0
    6.7152    3.8675    0.0000 C   0  0  0  0  0  0  0  0  0  0  0  0
    8.2120    3.7694    0.0000 O   0  0  0  0  0  0  0  0  0  0  0  0
    9.0454    5.0166    0.0000 C   0  0  0  0  0  0  0  0  0  0  0  0
   10.5422    4.9185    0.0000 C   0  0  0  0  0  0  0  0  0  0  0  0
    8.3819    6.3619    0.0000 C   0  0  0  0  0  0  0  0  0  0  0  0
    9.2153    7.6091    0.0000 O   0  0  0  0  0  0  0  0  0  0  0  0
    6.8852    6.4600    0.0000 C   0  0  0  0  0  0  0  0  0  0  0  0
    6.2217    7.8053    0.0000 O   0  0  0  0  0  0  0  0  0  0  0  0
    4.7249    7.9034    0.0000 C   0  0  0  0  0  0  0  0  0  0  0  0
    6.0518    5.2128    0.0000 C   0  0  0  0  0  0  0  0  0  0  0  0
    4.5550    5.3109    0.0000 O   0  0  0  0  0  0  0  0  0  0  0  0
    3.8916    6.6562    0.0000 C   0  0  0  0  0  0  0  0  0  0  0  0
  1  2  1  0
  2  3  1  0
  3  4  1  0
  4  5  1  0
  5  6  2  0
  5  7  1  0
  7  8  2  0
  8  9  1  0
  9 10  1  0
 10 11  1  0
 11 12  1  0
 12 13  1  0
 13 14  1  0
 14 15  1  0
 14 16  1  0
 16 17  1  0
 17 18  1  0
 18 19  1  0
 18 20  1  0
 17 21  1  0
 21 22  1  0
 10 23  1  0
 23 24  1  0
 23 25  1  0
 25 26  1  0
 26 27  1  0
 26 28  1  0
 28 29  2  0
 28 30  1  0
 30 31  2  0
 31 32  1  0
 32 33  2  0
 33 34  1  0
 34 35  1  0
 34 36  1  0
 36 37  1  0
 37 38  1  0
 38 39  1  0
 39 40  1  0
 40 41  1  0
 40 42  1  0
 42 43  1  0
 42 44  1  0
 44 45  1  0
 45 46  1  0
 44 47  1  0
 47 48  1  0
 48 49  1  0
 34  3  1  0
 47 38  1  0
 21 12  1  0
M  END
>  <ChEMBL_IDs>  (199) 
nan

>  <target_organism>  (199) 
nan

>  <target_molecule_pref_name>  (199) 
nan

>  <# Known Targets>  (199) 
nan

>  <Known Targets>  (199) 
nan

>  <smiles>  (199) 
CCC1OC(=O)/C=C\CC(OC2OC(C)CC(N(C)C)C2O)C(C)CC(C)C(=O)/C=C\C=C/C1(O)COC1OC(C)C(O)C(OC)C1OC

$$$$

     RDKit          2D

 49 51  0  0  0  0  0  0  0  0999 V2000
    5.7207   -7.9939    0.0000 C   0  0  0  0  0  0  0  0  0  0  0  0
    5.5249   -6.5067    0.0000 O   0  0  0  0  0  0  0  0  0  0  0  0
    6.7150   -5.5936    0.0000 C   0  0  0  0  0  0  0  0  0  0  0  0
    6.5192   -4.1064    0.0000 C   0  0  0  0  0  0  0  0  0  0  0  0
    5.1333   -3.5324    0.0000 O   0  0  0  0  0  0  0  0  0  0  0  0
    4.9376   -2.0452    0.0000 C   0  0  0  0  0  0  0  0  0  0  0  0
    3.5517   -1.4712    0.0000 C   0  0  0  0  0  0  0  0  0  0  0  0
    3.8444    0.0000    0.0000 C   0  0  0  0  0  0  0  0  0  0  0  0
    3.5517    1.4712    0.0000 C   0  0  0  0  0  0  0  0  0  0  0  0
    2.7184    2.7184    0.0000 C   0  0  0  0  0  0  0  0  0  0  0  0
    1.4712    3.5517    0.0000 C   0  0  0  0  0  0  0  0  0  0  0  0
    0.0000    3.8444    0.0000 C   0  0  0  0  0  0  0  0  0  0  0  0
    0.0000    5.3444    0.0000 O   0  0  0  0  0  0  0  0  0  0  0  0
   -1.4712    3.5517    0.0000 C   0  0  0  0  0  0  0  0  0  0  0  0
   -2.0452    4.9376    0.0000 C   0  0  0  0  0  0  0  0  0  0  0  0
   -2.7184    2.7184    0.0000 C   0  0  0  0  0  0  0  0  0  0  0  0
   -3.5517    1.4712    0.0000 C   0  0  0  0  0  0  0  0  0  0  0  0
   -4.9376    2.0452    0.0000 C   0  0  0  0  0  0  0  0  0  0  0  0
   -3.8444    0.0000    0.0000 C   0  0  0  0  0  0  0  0  0  0  0  0
   -5.3444    0.0000    0.0000 O   0  0  0  0  0  0  0  0  0  0  0  0
   -6.0944   -1.2990    0.0000 C   0  0  0  0  0  0  0  0  0  0  0  0
   -5.3444   -2.5981    0.0000 O   0  0  0  0  0  0  0  0  0  0  0  0
   -6.0944   -3.8971    0.0000 C   0  0  0  0  0  0  0  0  0  0  0  0
   -5.3444   -5.1962    0.0000 C   0  0  0  0  0  0  0  0  0  0  0  0
   -7.5944   -3.8971    0.0000 C   0  0  0  0  0  0  0  0  0  0  0  0
   -8.3444   -2.5981    0.0000 C   0  0  0  0  0  0  0  0  0  0  0  0
   -9.4934   -3.5623    0.0000 O   0  0  0  0  0  0  0  0  0  0  0  0
   -9.4934   -1.6339    0.0000 C   0  0  0  0  0  0  0  0  0  0  0  0
   -9.2330   -0.1567    0.0000 C   0  0  0  0  0  0  0  0  0  0  0  0
  -10.9030   -2.1469    0.0000 O   0  0  0  0  0  0  0  0  0  0  0  0
   -7.5944   -1.2990    0.0000 C   0  0  0  0  0  0  0  0  0  0  0  0
   -8.3444   -0.0000    0.0000 O   0  0  0  0  0  0  0  0  0  0  0  0
   -3.5517   -1.4712    0.0000 C   0  0  0  0  0  0  0  0  0  0  0  0
   -4.5284   -2.1939    0.0000 C   0  0  0  0  0  0  0  0  0  0  0  0
   -2.7184   -2.7184    0.0000 C   0  0  0  0  0  0  0  0  0  0  0  0
   -1.4712   -3.5517    0.0000 C   0  0  0  0  0  0  0  0  0  0  0  0
   -0.0000   -3.8444    0.0000 C   0  0  0  0  0  0  0  0  0  0  0  0
   -0.0000   -5.3444    0.0000 O   0  0  0  0  0  0  0  0  0  0  0  0
    1.4712   -3.5517    0.0000 O   0  0  0  0  0  0  0  0  0  0  0  0
    2.7184   -2.7184    0.0000 C   0  0  0  0  0  0  0  0  0  0  0  0
    3.7790   -3.7790    0.0000 C   0  0  0  0  0  0  0  0  0  0  0  0
    7.7092   -3.1933    0.0000 O   0  0  0  0  0  0  0  0  0  0  0  0
    9.0950   -3.7673    0.0000 C   0  0  0  0  0  0  0  0  0  0  0  0
   10.2850   -2.8541    0.0000 C   0  0  0  0  0  0  0  0  0  0  0  0
    9.2908   -5.2544    0.0000 C   0  0  0  0  0  0  0  0  0  0  0  0
   10.6766   -5.8285    0.0000 O   0  0  0  0  0  0  0  0  0  0  0  0
    8.1008   -6.1676    0.0000 C   0  0  0  0  0  0  0  0  0  0  0  0
    8.2966   -7.6548    0.0000 O   0  0  0  0  0  0  0  0  0  0  0  0
    7.1065   -8.5679    0.0000 C   0  0  0  0  0  0  0  0  0  0  0  0
  1  2  1  0
  3  2  1  1
  3  4  1  0
  4  5  1  6
  5  6  1  0
  7  6  1  6
  7  8  1  0
  8  9  2  0
  9 10  1  0
 10 11  1  0
 11 12  1  0
 12 13  2  0
 12 14  1  0
 14 15  1  1
 14 16  1  0
 16 17  1  0
 17 18  1  1
 17 19  1  0
 19 20  1  1
 21 20  1  6
 21 22  1  0
 22 23  1  0
 23 24  1  6
 23 25  1  0
 25 26  1  0
 26 27  1  1
 26 28  1  0
 28 29  1  1
 28 30  1  0
 26 31  1  0
 31 32  1  1
 19 33  1  0
 33 34  1  6
 33 35  1  0
 35 36  2  0
 36 37  1  0
 37 38  2  0
 37 39  1  0
 39 40  1  0
 40 41  1  1
  4 42  1  0
 42 43  1  0
 43 44  1  6
 43 45  1  0
 45 46  1  1
 45 47  1  0
 47 48  1  1
 48 49  1  0
 47  3  1  0
 40  7  1  0
 31 21  1  0
M  END
>  <ChEMBL_IDs>  (200) 
CHEMBL4100950

>  <target_organism>  (200) 
Hepatitis C virus,None

>  <target_molecule_pref_name>  (200) 
nan

>  <# Known Targets>  (200) 
nan

>  <Known Targets>  (200) 
nan

>  <smiles>  (200) 
CO[C@H]1[C@H](OC[C@H]2/C=C/CCC(=O)[C@H](C)C[C@H](C)[C@H](O[C@@H]3O[C@H](C)C[C@](O)([C@H](C)O)[C@H]3O)[C@@H](C)/C=C/C(=O)O[C@@H]2C)O[C@H](C)[C@@H](O)[C@H]1OC

$$$$

     RDKit          2D

 50 52  0  0  0  0  0  0  0  0999 V2000
    5.7207   -7.9939    0.0000 C   0  0  0  0  0  0  0  0  0  0  0  0
    5.5249   -6.5067    0.0000 O   0  0  0  0  0  0  0  0  0  0  0  0
    6.7150   -5.5936    0.0000 C   0  0  0  0  0  0  0  0  0  0  0  0
    6.5192   -4.1064    0.0000 C   0  0  0  0  0  0  0  0  0  0  0  0
    5.1333   -3.5324    0.0000 O   0  0  0  0  0  0  0  0  0  0  0  0
    4.9376   -2.0452    0.0000 C   0  0  0  0  0  0  0  0  0  0  0  0
    3.5517   -1.4712    0.0000 C   0  0  0  0  0  0  0  0  0  0  0  0
    3.8444    0.0000    0.0000 C   0  0  0  0  0  0  0  0  0  0  0  0
    3.5517    1.4712    0.0000 C   0  0  0  0  0  0  0  0  0  0  0  0
    2.7184    2.7184    0.0000 C   0  0  0  0  0  0  0  0  0  0  0  0
    1.4712    3.5517    0.0000 C   0  0  0  0  0  0  0  0  0  0  0  0
    0.0000    3.8444    0.0000 C   0  0  0  0  0  0  0  0  0  0  0  0
    0.0000    5.3444    0.0000 O   0  0  0  0  0  0  0  0  0  0  0  0
   -1.4712    3.5517    0.0000 C   0  0  0  0  0  0  0  0  0  0  0  0
   -2.7184    4.3851    0.0000 C   0  0  0  0  0  0  0  0  0  0  0  0
   -1.1785    5.0229    0.0000 O   0  0  0  0  0  0  0  0  0  0  0  0
   -2.7184    2.7184    0.0000 C   0  0  0  0  0  0  0  0  0  0  0  0
   -3.5517    1.4712    0.0000 C   0  0  0  0  0  0  0  0  0  0  0  0
   -4.9376    2.0452    0.0000 C   0  0  0  0  0  0  0  0  0  0  0  0
   -3.8444    0.0000    0.0000 C   0  0  0  0  0  0  0  0  0  0  0  0
   -5.3444    0.0000    0.0000 O   0  0  0  0  0  0  0  0  0  0  0  0
   -6.0944   -1.2990    0.0000 C   0  0  0  0  0  0  0  0  0  0  0  0
   -5.3444   -2.5981    0.0000 O   0  0  0  0  0  0  0  0  0  0  0  0
   -6.0944   -3.8971    0.0000 C   0  0  0  0  0  0  0  0  0  0  0  0
   -5.3444   -5.1962    0.0000 C   0  0  0  0  0  0  0  0  0  0  0  0
   -7.5944   -3.8971    0.0000 C   0  0  0  0  0  0  0  0  0  0  0  0
   -8.3444   -2.5981    0.0000 C   0  0  0  0  0  0  0  0  0  0  0  0
   -9.4934   -3.5623    0.0000 O   0  0  0  0  0  0  0  0  0  0  0  0
   -9.4934   -1.6339    0.0000 C   0  0  0  0  0  0  0  0  0  0  0  0
   -9.2330   -0.1567    0.0000 C   0  0  0  0  0  0  0  0  0  0  0  0
  -10.9030   -2.1469    0.0000 O   0  0  0  0  0  0  0  0  0  0  0  0
   -7.5944   -1.2990    0.0000 C   0  0  0  0  0  0  0  0  0  0  0  0
   -8.3444   -0.0000    0.0000 O   0  0  0  0  0  0  0  0  0  0  0  0
   -3.5517   -1.4712    0.0000 C   0  0  0  0  0  0  0  0  0  0  0  0
   -4.5284   -2.1939    0.0000 C   0  0  0  0  0  0  0  0  0  0  0  0
   -2.7184   -2.7184    0.0000 C   0  0  0  0  0  0  0  0  0  0  0  0
   -1.4712   -3.5517    0.0000 C   0  0  0  0  0  0  0  0  0  0  0  0
   -0.0000   -3.8444    0.0000 C   0  0  0  0  0  0  0  0  0  0  0  0
   -0.0000   -5.3444    0.0000 O   0  0  0  0  0  0  0  0  0  0  0  0
    1.4712   -3.5517    0.0000 O   0  0  0  0  0  0  0  0  0  0  0  0
    2.7184   -2.7184    0.0000 C   0  0  0  0  0  0  0  0  0  0  0  0
    3.7790   -3.7790    0.0000 C   0  0  0  0  0  0  0  0  0  0  0  0
    7.7092   -3.1933    0.0000 O   0  0  0  0  0  0  0  0  0  0  0  0
    9.0950   -3.7673    0.0000 C   0  0  0  0  0  0  0  0  0  0  0  0
   10.2850   -2.8541    0.0000 C   0  0  0  0  0  0  0  0  0  0  0  0
    9.2908   -5.2544    0.0000 C   0  0  0  0  0  0  0  0  0  0  0  0
   10.6766   -5.8285    0.0000 O   0  0  0  0  0  0  0  0  0  0  0  0
    8.1008   -6.1676    0.0000 C   0  0  0  0  0  0  0  0  0  0  0  0
    8.2966   -7.6548    0.0000 O   0  0  0  0  0  0  0  0  0  0  0  0
    7.1065   -8.5679    0.0000 C   0  0  0  0  0  0  0  0  0  0  0  0
  1  2  1  0
  3  2  1  1
  3  4  1  0
  4  5  1  6
  5  6  1  0
  7  6  1  6
  7  8  1  0
  8  9  2  0
  9 10  1  0
 10 11  1  0
 11 12  1  0
 12 13  2  0
 12 14  1  0
 14 15  1  1
 14 16  1  0
 14 17  1  0
 17 18  1  0
 18 19  1  1
 18 20  1  0
 20 21  1  1
 22 21  1  6
 22 23  1  0
 23 24  1  0
 24 25  1  6
 24 26  1  0
 26 27  1  0
 27 28  1  1
 27 29  1  0
 29 30  1  1
 29 31  1  0
 27 32  1  0
 32 33  1  1
 20 34  1  0
 34 35  1  6
 34 36  1  0
 36 37  2  0
 37 38  1  0
 38 39  2  0
 38 40  1  0
 40 41  1  0
 41 42  1  1
  4 43  1  0
 43 44  1  0
 44 45  1  6
 44 46  1  0
 46 47  1  1
 46 48  1  0
 48 49  1  1
 49 50  1  0
 48  3  1  0
 41  7  1  0
 32 22  1  0
M  END
>  <ChEMBL_IDs>  (201) 
CHEMBL4080201

>  <target_organism>  (201) 
Hepatitis C virus,None

>  <target_molecule_pref_name>  (201) 
nan

>  <# Known Targets>  (201) 
nan

>  <Known Targets>  (201) 
nan

>  <smiles>  (201) 
CO[C@H]1[C@H](OC[C@H]2/C=C/CCC(=O)[C@@](C)(O)C[C@H](C)[C@H](O[C@@H]3O[C@H](C)C[C@](O)([C@H](C)O)[C@H]3O)[C@@H](C)/C=C/C(=O)O[C@@H]2C)O[C@H](C)[C@@H](O)[C@H]1OC

$$$$

     RDKit          2D

 49 51  0  0  0  0  0  0  0  0999 V2000
    5.6205   -1.2990    0.0000 C   0  0  0  0  0  0  0  0  0  0  0  0
    4.8705    0.0000    0.0000 C   0  0  0  0  0  0  0  0  0  0  0  0
    3.3705    0.0000    0.0000 C   0  0  0  0  0  0  0  0  0  0  0  0
    3.0367   -1.4624    0.0000 O   0  0  0  0  0  0  0  0  0  0  0  0
    2.1015   -2.6351    0.0000 C   0  0  0  0  0  0  0  0  0  0  0  0
    3.0367   -3.8079    0.0000 O   0  0  0  0  0  0  0  0  0  0  0  0
    0.7500   -3.2860    0.0000 C   0  0  0  0  0  0  0  0  0  0  0  0
    1.3600   -4.4903    0.0000 C   0  0  0  0  0  0  0  0  0  0  0  0
   -0.7500   -3.2860    0.0000 C   0  0  0  0  0  0  0  0  0  0  0  0
   -1.0838   -4.7484    0.0000 O   0  0  0  0  0  0  0  0  0  0  0  0
    0.0158   -5.7686    0.0000 C   0  0  0  0  0  0  0  0  0  0  0  0
   -0.3180   -7.2310    0.0000 C   0  0  0  0  0  0  0  0  0  0  0  0
    0.7816   -8.2513    0.0000 C   0  0  0  0  0  0  0  0  0  0  0  0
    1.4659   -9.5861    0.0000 C   0  0  0  0  0  0  0  0  0  0  0  0
   -0.4141   -9.1570    0.0000 O   0  0  0  0  0  0  0  0  0  0  0  0
    2.2150   -7.8091    0.0000 C   0  0  0  0  0  0  0  0  0  0  0  0
    3.3145   -8.8294    0.0000 O   0  0  0  0  0  0  0  0  0  0  0  0
    2.5487   -6.3467    0.0000 C   0  0  0  0  0  0  0  0  0  0  0  0
    3.9821   -5.9046    0.0000 C   0  0  0  0  0  0  0  0  0  0  0  0
    1.4492   -5.3265    0.0000 O   0  0  0  0  0  0  0  0  0  0  0  0
   -2.1015   -2.6351    0.0000 C   0  0  0  0  0  0  0  0  0  0  0  0
   -3.0367   -3.8079    0.0000 C   0  0  0  0  0  0  0  0  0  0  0  0
   -3.0367   -1.4624    0.0000 C   0  0  0  0  0  0  0  0  0  0  0  0
   -4.3881   -2.1132    0.0000 O   0  0  0  0  0  0  0  0  0  0  0  0
   -5.6275   -1.2682    0.0000 C   0  0  0  0  0  0  0  0  0  0  0  0
   -5.5154    0.2276    0.0000 O   0  0  0  0  0  0  0  0  0  0  0  0
   -6.7548    1.0725    0.0000 C   0  0  0  0  0  0  0  0  0  0  0  0
   -6.6427    2.5684    0.0000 C   0  0  0  0  0  0  0  0  0  0  0  0
   -8.1062    0.4217    0.0000 C   0  0  0  0  0  0  0  0  0  0  0  0
   -8.2183   -1.0741    0.0000 C   0  0  0  0  0  0  0  0  0  0  0  0
   -9.5698   -1.7249    0.0000 N   0  0  0  0  0  0  0  0  0  0  0  0
  -10.8091   -0.8799    0.0000 C   0  0  0  0  0  0  0  0  0  0  0  0
   -9.6819   -3.2207    0.0000 C   0  0  0  0  0  0  0  0  0  0  0  0
   -6.9790   -1.9191    0.0000 C   0  0  0  0  0  0  0  0  0  0  0  0
   -7.0910   -3.4149    0.0000 O   0  0  0  0  0  0  0  0  0  0  0  0
   -3.3705    0.0000    0.0000 C   0  0  0  0  0  0  0  0  0  0  0  0
   -4.6098   -0.8450    0.0000 C   0  0  0  0  0  0  0  0  0  0  0  0
   -4.6098    0.8450    0.0000 O   0  0  0  0  0  0  0  0  0  0  0  0
   -3.0367    1.4624    0.0000 C   0  0  0  0  0  0  0  0  0  0  0  0
   -2.1015    2.6351    0.0000 C   0  0  0  0  0  0  0  0  0  0  0  0
   -3.0367    3.8079    0.0000 C   0  0  0  0  0  0  0  0  0  0  0  0
   -0.7500    3.2860    0.0000 C   0  0  0  0  0  0  0  0  0  0  0  0
   -1.0838    4.7484    0.0000 O   0  0  0  0  0  0  0  0  0  0  0  0
    0.7500    3.2860    0.0000 C   0  0  0  0  0  0  0  0  0  0  0  0
    1.0838    4.7484    0.0000 C   0  0  0  0  0  0  0  0  0  0  0  0
    2.1015    2.6351    0.0000 C   0  0  0  0  0  0  0  0  0  0  0  0
    3.0367    3.8079    0.0000 O   0  0  0  0  0  0  0  0  0  0  0  0
    3.0367    1.4624    0.0000 C   0  0  0  0  0  0  0  0  0  0  0  0
    4.3881    2.1132    0.0000 C   0  0  0  0  0  0  0  0  0  0  0  0
  1  2  1  0
  3  2  1  1
  3  4  1  0
  4  5  1  0
  5  6  2  0
  5  7  1  0
  7  8  1  6
  7  9  1  0
  9 10  1  1
 10 11  1  0
 11 12  1  0
 12 13  1  0
 13 14  1  1
 13 15  1  0
 13 16  1  0
 16 17  1  6
 16 18  1  0
 18 19  1  1
 18 20  1  0
  9 21  1  0
 21 22  1  6
 21 23  1  0
 23 24  1  1
 24 25  1  0
 25 26  1  0
 26 27  1  0
 27 28  1  1
 27 29  1  0
 29 30  1  0
 30 31  1  1
 31 32  1  0
 31 33  1  0
 30 34  1  0
 34 35  1  6
 23 36  1  0
 36 37  1  1
 36 38  1  0
 36 39  1  0
 39 40  1  0
 40 41  1  1
 40 42  1  0
 42 43  2  0
 42 44  1  0
 44 45  1  6
 44 46  1  0
 46 47  1  1
 46 48  1  0
 48 49  1  1
 48  3  1  0
 20 11  1  0
 34 25  1  0
M  END
>  <ChEMBL_IDs>  (202) 
nan

>  <target_organism>  (202) 
nan

>  <target_molecule_pref_name>  (202) 
nan

>  <# Known Targets>  (202) 
nan

>  <Known Targets>  (202) 
nan

>  <smiles>  (202) 
CC[C@H]1OC(=O)[C@H](C)[C@@H](OC2C[C@@](C)(O)[C@@H](O)[C@H](C)O2)[C@H](C)[C@@H](OC2O[C@H](C)C[C@H](N(C)C)[C@H]2O)[C@](C)(O)C[C@@H](C)C(=O)[C@H](C)[C@@H](O)[C@H]1C

$$$$

     RDKit          2D

 49 51  0  0  0  0  0  0  0  0999 V2000
    5.6205   -1.2990    0.0000 C   0  0  0  0  0  0  0  0  0  0  0  0
    4.8705    0.0000    0.0000 C   0  0  0  0  0  0  0  0  0  0  0  0
    3.3705    0.0000    0.0000 C   0  0  0  0  0  0  0  0  0  0  0  0
    3.0367   -1.4624    0.0000 O   0  0  0  0  0  0  0  0  0  0  0  0
    2.1015   -2.6351    0.0000 C   0  0  0  0  0  0  0  0  0  0  0  0
    3.0367   -3.8079    0.0000 O   0  0  0  0  0  0  0  0  0  0  0  0
    0.7500   -3.2860    0.0000 C   0  0  0  0  0  0  0  0  0  0  0  0
    1.3600   -4.4903    0.0000 C   0  0  0  0  0  0  0  0  0  0  0  0
   -0.7500   -3.2860    0.0000 C   0  0  0  0  0  0  0  0  0  0  0  0
   -1.0838   -4.7484    0.0000 O   0  0  0  0  0  0  0  0  0  0  0  0
    0.0158   -5.7686    0.0000 C   0  0  0  0  0  0  0  0  0  0  0  0
   -0.3180   -7.2310    0.0000 C   0  0  0  0  0  0  0  0  0  0  0  0
    0.7816   -8.2513    0.0000 C   0  0  0  0  0  0  0  0  0  0  0  0
    0.4478   -9.7137    0.0000 O   0  0  0  0  0  0  0  0  0  0  0  0
    1.5474  -10.7339    0.0000 C   0  0  0  0  0  0  0  0  0  0  0  0
    2.2150   -7.8091    0.0000 C   0  0  0  0  0  0  0  0  0  0  0  0
    3.3145   -8.8294    0.0000 O   0  0  0  0  0  0  0  0  0  0  0  0
    2.5487   -6.3467    0.0000 C   0  0  0  0  0  0  0  0  0  0  0  0
    3.9821   -5.9046    0.0000 C   0  0  0  0  0  0  0  0  0  0  0  0
    1.4492   -5.3265    0.0000 O   0  0  0  0  0  0  0  0  0  0  0  0
   -2.1015   -2.6351    0.0000 C   0  0  0  0  0  0  0  0  0  0  0  0
   -3.0367   -3.8079    0.0000 C   0  0  0  0  0  0  0  0  0  0  0  0
   -3.0367   -1.4624    0.0000 C   0  0  0  0  0  0  0  0  0  0  0  0
   -4.3881   -2.1132    0.0000 O   0  0  0  0  0  0  0  0  0  0  0  0
   -5.6275   -1.2682    0.0000 C   0  0  0  0  0  0  0  0  0  0  0  0
   -5.5154    0.2276    0.0000 O   0  0  0  0  0  0  0  0  0  0  0  0
   -6.7548    1.0725    0.0000 C   0  0  0  0  0  0  0  0  0  0  0  0
   -6.6427    2.5684    0.0000 C   0  0  0  0  0  0  0  0  0  0  0  0
   -8.1062    0.4217    0.0000 C   0  0  0  0  0  0  0  0  0  0  0  0
   -8.2183   -1.0741    0.0000 C   0  0  0  0  0  0  0  0  0  0  0  0
   -9.5698   -1.7249    0.0000 N   0  0  0  0  0  0  0  0  0  0  0  0
  -10.8091   -0.8799    0.0000 C   0  0  0  0  0  0  0  0  0  0  0  0
   -9.6819   -3.2207    0.0000 C   0  0  0  0  0  0  0  0  0  0  0  0
   -6.9790   -1.9191    0.0000 C   0  0  0  0  0  0  0  0  0  0  0  0
   -7.0910   -3.4149    0.0000 O   0  0  0  0  0  0  0  0  0  0  0  0
   -3.3705    0.0000    0.0000 C   0  0  0  0  0  0  0  0  0  0  0  0
   -4.6098   -0.8450    0.0000 C   0  0  0  0  0  0  0  0  0  0  0  0
   -4.6098    0.8450    0.0000 O   0  0  0  0  0  0  0  0  0  0  0  0
   -3.0367    1.4624    0.0000 C   0  0  0  0  0  0  0  0  0  0  0  0
   -2.1015    2.6351    0.0000 C   0  0  0  0  0  0  0  0  0  0  0  0
   -3.0367    3.8079    0.0000 C   0  0  0  0  0  0  0  0  0  0  0  0
   -0.7500    3.2860    0.0000 C   0  0  0  0  0  0  0  0  0  0  0  0
   -1.0838    4.7484    0.0000 O   0  0  0  0  0  0  0  0  0  0  0  0
    0.7500    3.2860    0.0000 C   0  0  0  0  0  0  0  0  0  0  0  0
    1.0838    4.7484    0.0000 C   0  0  0  0  0  0  0  0  0  0  0  0
    2.1015    2.6351    0.0000 C   0  0  0  0  0  0  0  0  0  0  0  0
    3.0367    3.8079    0.0000 O   0  0  0  0  0  0  0  0  0  0  0  0
    3.0367    1.4624    0.0000 C   0  0  0  0  0  0  0  0  0  0  0  0
    4.3881    2.1132    0.0000 C   0  0  0  0  0  0  0  0  0  0  0  0
  1  2  1  0
  2  3  1  0
  3  4  1  0
  4  5  1  0
  5  6  2  0
  5  7  1  0
  7  8  1  0
  7  9  1  0
  9 10  1  0
 10 11  1  0
 11 12  1  0
 12 13  1  0
 13 14  1  0
 14 15  1  0
 13 16  1  0
 16 17  1  0
 16 18  1  0
 18 19  1  0
 18 20  1  0
  9 21  1  0
 21 22  1  0
 21 23  1  0
 23 24  1  0
 24 25  1  0
 25 26  1  0
 26 27  1  0
 27 28  1  0
 27 29  1  0
 29 30  1  0
 30 31  1  0
 31 32  1  0
 31 33  1  0
 30 34  1  0
 34 35  1  0
 23 36  1  0
 36 37  1  0
 36 38  1  0
 36 39  1  0
 39 40  1  0
 40 41  1  0
 40 42  1  0
 42 43  2  0
 42 44  1  0
 44 45  1  0
 44 46  1  0
 46 47  1  0
 46 48  1  0
 48 49  1  0
 48  3  1  0
 20 11  1  0
 34 25  1  0
M  END
>  <ChEMBL_IDs>  (203) 
nan

>  <target_organism>  (203) 
nan

>  <target_molecule_pref_name>  (203) 
nan

>  <# Known Targets>  (203) 
nan

>  <Known Targets>  (203) 
nan

>  <smiles>  (203) 
CCC1OC(=O)C(C)C(OC2CC(OC)C(O)C(C)O2)C(C)C(OC2OC(C)CC(N(C)C)C2O)C(C)(O)CC(C)C(=O)C(C)C(O)C1C

$$$$

     RDKit          2D

 49 51  0  0  0  0  0  0  0  0999 V2000
    5.6205   -1.2990    0.0000 C   0  0  0  0  0  0  0  0  0  0  0  0
    4.8705    0.0000    0.0000 C   0  0  0  0  0  0  0  0  0  0  0  0
    3.3705    0.0000    0.0000 C   0  0  0  0  0  0  0  0  0  0  0  0
    3.0367   -1.4624    0.0000 O   0  0  0  0  0  0  0  0  0  0  0  0
    2.1015   -2.6351    0.0000 C   0  0  0  0  0  0  0  0  0  0  0  0
    3.0367   -3.8079    0.0000 O   0  0  0  0  0  0  0  0  0  0  0  0
    0.7500   -3.2860    0.0000 C   0  0  0  0  0  0  0  0  0  0  0  0
    1.3600   -4.4903    0.0000 C   0  0  0  0  0  0  0  0  0  0  0  0
   -0.7500   -3.2860    0.0000 C   0  0  0  0  0  0  0  0  0  0  0  0
   -1.0838   -4.7484    0.0000 O   0  0  0  0  0  0  0  0  0  0  0  0
    0.0158   -5.7686    0.0000 C   0  0  0  0  0  0  0  0  0  0  0  0
   -0.3180   -7.2310    0.0000 C   0  0  0  0  0  0  0  0  0  0  0  0
    0.7816   -8.2513    0.0000 C   0  0  0  0  0  0  0  0  0  0  0  0
    0.4478   -9.7137    0.0000 O   0  0  0  0  0  0  0  0  0  0  0  0
    1.5474  -10.7339    0.0000 C   0  0  0  0  0  0  0  0  0  0  0  0
    2.2150   -7.8091    0.0000 C   0  0  0  0  0  0  0  0  0  0  0  0
    3.3145   -8.8294    0.0000 O   0  0  0  0  0  0  0  0  0  0  0  0
    2.5487   -6.3467    0.0000 C   0  0  0  0  0  0  0  0  0  0  0  0
    3.9821   -5.9046    0.0000 C   0  0  0  0  0  0  0  0  0  0  0  0
    1.4492   -5.3265    0.0000 O   0  0  0  0  0  0  0  0  0  0  0  0
   -2.1015   -2.6351    0.0000 C   0  0  0  0  0  0  0  0  0  0  0  0
   -3.0367   -3.8079    0.0000 C   0  0  0  0  0  0  0  0  0  0  0  0
   -3.0367   -1.4624    0.0000 C   0  0  0  0  0  0  0  0  0  0  0  0
   -4.3881   -2.1132    0.0000 O   0  0  0  0  0  0  0  0  0  0  0  0
   -5.6275   -1.2682    0.0000 C   0  0  0  0  0  0  0  0  0  0  0  0
   -5.5154    0.2276    0.0000 O   0  0  0  0  0  0  0  0  0  0  0  0
   -6.7548    1.0725    0.0000 C   0  0  0  0  0  0  0  0  0  0  0  0
   -6.6427    2.5684    0.0000 C   0  0  0  0  0  0  0  0  0  0  0  0
   -8.1062    0.4217    0.0000 C   0  0  0  0  0  0  0  0  0  0  0  0
   -8.2183   -1.0741    0.0000 C   0  0  0  0  0  0  0  0  0  0  0  0
   -9.5698   -1.7249    0.0000 N   0  0  0  0  0  0  0  0  0  0  0  0
  -10.8091   -0.8799    0.0000 C   0  0  0  0  0  0  0  0  0  0  0  0
   -9.6819   -3.2207    0.0000 C   0  0  0  0  0  0  0  0  0  0  0  0
   -6.9790   -1.9191    0.0000 C   0  0  0  0  0  0  0  0  0  0  0  0
   -7.0910   -3.4149    0.0000 O   0  0  0  0  0  0  0  0  0  0  0  0
   -3.3705    0.0000    0.0000 C   0  0  0  0  0  0  0  0  0  0  0  0
   -4.6098   -0.8450    0.0000 C   0  0  0  0  0  0  0  0  0  0  0  0
   -4.6098    0.8450    0.0000 O   0  0  0  0  0  0  0  0  0  0  0  0
   -3.0367    1.4624    0.0000 C   0  0  0  0  0  0  0  0  0  0  0  0
   -2.1015    2.6351    0.0000 C   0  0  0  0  0  0  0  0  0  0  0  0
   -3.0367    3.8079    0.0000 C   0  0  0  0  0  0  0  0  0  0  0  0
   -0.7500    3.2860    0.0000 C   0  0  0  0  0  0  0  0  0  0  0  0
   -1.0838    4.7484    0.0000 O   0  0  0  0  0  0  0  0  0  0  0  0
    0.7500    3.2860    0.0000 C   0  0  0  0  0  0  0  0  0  0  0  0
    1.0838    4.7484    0.0000 C   0  0  0  0  0  0  0  0  0  0  0  0
    2.1015    2.6351    0.0000 C   0  0  0  0  0  0  0  0  0  0  0  0
    3.0367    3.8079    0.0000 O   0  0  0  0  0  0  0  0  0  0  0  0
    3.0367    1.4624    0.0000 C   0  0  0  0  0  0  0  0  0  0  0  0
    4.3881    2.1132    0.0000 C   0  0  0  0  0  0  0  0  0  0  0  0
  1  2  1  0
  2  3  1  0
  3  4  1  0
  4  5  1  0
  5  6  2  0
  5  7  1  0
  7  8  1  0
  7  9  1  0
  9 10  1  0
 10 11  1  0
 11 12  1  0
 12 13  1  0
 13 14  1  0
 14 15  1  0
 13 16  1  0
 16 17  1  0
 16 18  1  0
 18 19  1  0
 18 20  1  0
  9 21  1  0
 21 22  1  0
 21 23  1  0
 23 24  1  0
 24 25  1  0
 25 26  1  0
 26 27  1  0
 27 28  1  0
 27 29  1  0
 29 30  1  0
 30 31  1  0
 31 32  1  0
 31 33  1  0
 30 34  1  0
 34 35  1  0
 23 36  1  0
 36 37  1  0
 36 38  1  0
 36 39  1  0
 39 40  1  0
 40 41  1  0
 40 42  1  0
 42 43  2  0
 42 44  1  0
 44 45  1  0
 44 46  1  0
 46 47  1  0
 46 48  1  0
 48 49  1  0
 48  3  1  0
 20 11  1  0
 34 25  1  0
M  END
>  <ChEMBL_IDs>  (204) 
nan

>  <target_organism>  (204) 
nan

>  <target_molecule_pref_name>  (204) 
nan

>  <# Known Targets>  (204) 
nan

>  <Known Targets>  (204) 
nan

>  <smiles>  (204) 
CCC1OC(=O)C(C)C(OC2CC(OC)C(O)C(C)O2)C(C)C(OC2OC(C)CC(N(C)C)C2O)C(C)(O)CC(C)C(=O)C(C)C(O)C1C

$$$$

     RDKit          2D

 49 51  0  0  0  0  0  0  0  0999 V2000
    5.6205   -1.2990    0.0000 C   0  0  0  0  0  0  0  0  0  0  0  0
    4.8705    0.0000    0.0000 C   0  0  0  0  0  0  0  0  0  0  0  0
    3.3705    0.0000    0.0000 C   0  0  0  0  0  0  0  0  0  0  0  0
    3.0367   -1.4624    0.0000 O   0  0  0  0  0  0  0  0  0  0  0  0
    2.1015   -2.6351    0.0000 C   0  0  0  0  0  0  0  0  0  0  0  0
    3.0367   -3.8079    0.0000 O   0  0  0  0  0  0  0  0  0  0  0  0
    0.7500   -3.2860    0.0000 C   0  0  0  0  0  0  0  0  0  0  0  0
   -0.7500   -3.2860    0.0000 C   0  0  0  0  0  0  0  0  0  0  0  0
   -1.0838   -4.7484    0.0000 O   0  0  0  0  0  0  0  0  0  0  0  0
    0.0158   -5.7686    0.0000 C   0  0  0  0  0  0  0  0  0  0  0  0
    1.4492   -5.3265    0.0000 C   0  0  0  0  0  0  0  0  0  0  0  0
    2.5487   -6.3467    0.0000 C   0  0  0  0  0  0  0  0  0  0  0  0
    3.9309   -6.9294    0.0000 C   0  0  0  0  0  0  0  0  0  0  0  0
    3.3626   -5.0867    0.0000 O   0  0  0  0  0  0  0  0  0  0  0  0
    4.8607   -5.1615    0.0000 C   0  0  0  0  0  0  0  0  0  0  0  0
    2.2150   -7.8091    0.0000 C   0  0  0  0  0  0  0  0  0  0  0  0
    3.3145   -8.8294    0.0000 O   0  0  0  0  0  0  0  0  0  0  0  0
    0.7816   -8.2513    0.0000 C   0  0  0  0  0  0  0  0  0  0  0  0
    0.4478   -9.7137    0.0000 C   0  0  0  0  0  0  0  0  0  0  0  0
   -0.3180   -7.2310    0.0000 O   0  0  0  0  0  0  0  0  0  0  0  0
   -2.1015   -2.6351    0.0000 C   0  0  0  0  0  0  0  0  0  0  0  0
   -3.0367   -3.8079    0.0000 C   0  0  0  0  0  0  0  0  0  0  0  0
   -3.0367   -1.4624    0.0000 C   0  0  0  0  0  0  0  0  0  0  0  0
   -4.3881   -2.1132    0.0000 O   0  0  0  0  0  0  0  0  0  0  0  0
   -5.6275   -1.2682    0.0000 C   0  0  0  0  0  0  0  0  0  0  0  0
   -5.5154    0.2276    0.0000 O   0  0  0  0  0  0  0  0  0  0  0  0
   -6.7548    1.0725    0.0000 C   0  0  0  0  0  0  0  0  0  0  0  0
   -6.6427    2.5684    0.0000 C   0  0  0  0  0  0  0  0  0  0  0  0
   -8.1062    0.4217    0.0000 C   0  0  0  0  0  0  0  0  0  0  0  0
   -8.2183   -1.0741    0.0000 C   0  0  0  0  0  0  0  0  0  0  0  0
   -9.5698   -1.7249    0.0000 N   0  0  0  0  0  0  0  0  0  0  0  0
  -10.8091   -0.8799    0.0000 C   0  0  0  0  0  0  0  0  0  0  0  0
   -9.6819   -3.2207    0.0000 C   0  0  0  0  0  0  0  0  0  0  0  0
   -6.9790   -1.9191    0.0000 C   0  0  0  0  0  0  0  0  0  0  0  0
   -7.0910   -3.4149    0.0000 O   0  0  0  0  0  0  0  0  0  0  0  0
   -3.3705    0.0000    0.0000 C   0  0  0  0  0  0  0  0  0  0  0  0
   -4.6098   -0.8450    0.0000 C   0  0  0  0  0  0  0  0  0  0  0  0
   -4.6098    0.8450    0.0000 O   0  0  0  0  0  0  0  0  0  0  0  0
   -3.0367    1.4624    0.0000 C   0  0  0  0  0  0  0  0  0  0  0  0
   -2.1015    2.6351    0.0000 C   0  0  0  0  0  0  0  0  0  0  0  0
   -3.0367    3.8079    0.0000 C   0  0  0  0  0  0  0  0  0  0  0  0
   -0.7500    3.2860    0.0000 C   0  0  0  0  0  0  0  0  0  0  0  0
   -1.0838    4.7484    0.0000 O   0  0  0  0  0  0  0  0  0  0  0  0
    0.7500    3.2860    0.0000 C   0  0  0  0  0  0  0  0  0  0  0  0
    1.0838    4.7484    0.0000 C   0  0  0  0  0  0  0  0  0  0  0  0
    2.1015    2.6351    0.0000 C   0  0  0  0  0  0  0  0  0  0  0  0
    3.0367    3.8079    0.0000 O   0  0  0  0  0  0  0  0  0  0  0  0
    3.0367    1.4624    0.0000 C   0  0  0  0  0  0  0  0  0  0  0  0
    4.3881    2.1132    0.0000 C   0  0  0  0  0  0  0  0  0  0  0  0
  1  2  1  0
  2  3  1  0
  3  4  1  0
  4  5  1  0
  5  6  2  0
  5  7  1  0
  7  8  1  0
  8  9  1  0
  9 10  1  0
 10 11  1  0
 11 12  1  0
 12 13  1  0
 12 14  1  0
 14 15  1  0
 12 16  1  0
 16 17  1  0
 16 18  1  0
 18 19  1  0
 18 20  1  0
  8 21  1  0
 21 22  1  0
 21 23  1  0
 23 24  1  0
 24 25  1  0
 25 26  1  0
 26 27  1  0
 27 28  1  0
 27 29  1  0
 29 30  1  0
 30 31  1  0
 31 32  1  0
 31 33  1  0
 30 34  1  0
 34 35  1  0
 23 36  1  0
 36 37  1  0
 36 38  1  0
 36 39  1  0
 39 40  1  0
 40 41  1  0
 40 42  1  0
 42 43  2  0
 42 44  1  0
 44 45  1  0
 44 46  1  0
 46 47  1  0
 46 48  1  0
 48 49  1  0
 48  3  1  0
 20 10  1  0
 34 25  1  0
M  END
>  <ChEMBL_IDs>  (205) 
nan

>  <target_organism>  (205) 
nan

>  <target_molecule_pref_name>  (205) 
nan

>  <# Known Targets>  (205) 
nan

>  <Known Targets>  (205) 
nan

>  <smiles>  (205) 
CCC1OC(=O)CC(OC2CC(C)(OC)C(O)C(C)O2)C(C)C(OC2OC(C)CC(N(C)C)C2O)C(C)(O)CC(C)C(=O)C(C)C(O)C1C

$$$$

     RDKit          2D

 49 51  0  0  0  0  0  0  0  0999 V2000
    5.6205   -1.2990    0.0000 C   0  0  0  0  0  0  0  0  0  0  0  0
    4.8705    0.0000    0.0000 C   0  0  0  0  0  0  0  0  0  0  0  0
    3.3705    0.0000    0.0000 C   0  0  0  0  0  0  0  0  0  0  0  0
    3.0367   -1.4624    0.0000 O   0  0  0  0  0  0  0  0  0  0  0  0
    2.1015   -2.6351    0.0000 C   0  0  0  0  0  0  0  0  0  0  0  0
    3.0367   -3.8079    0.0000 O   0  0  0  0  0  0  0  0  0  0  0  0
    0.7500   -3.2860    0.0000 C   0  0  0  0  0  0  0  0  0  0  0  0
   -0.7500   -3.2860    0.0000 C   0  0  0  0  0  0  0  0  0  0  0  0
   -1.0838   -4.7484    0.0000 O   0  0  0  0  0  0  0  0  0  0  0  0
    0.0158   -5.7686    0.0000 C   0  0  0  0  0  0  0  0  0  0  0  0
    1.4492   -5.3265    0.0000 C   0  0  0  0  0  0  0  0  0  0  0  0
    2.5487   -6.3467    0.0000 C   0  0  0  0  0  0  0  0  0  0  0  0
    3.9309   -6.9294    0.0000 C   0  0  0  0  0  0  0  0  0  0  0  0
    3.3626   -5.0867    0.0000 O   0  0  0  0  0  0  0  0  0  0  0  0
    4.8607   -5.1615    0.0000 C   0  0  0  0  0  0  0  0  0  0  0  0
    2.2150   -7.8091    0.0000 C   0  0  0  0  0  0  0  0  0  0  0  0
    3.3145   -8.8294    0.0000 O   0  0  0  0  0  0  0  0  0  0  0  0
    0.7816   -8.2513    0.0000 C   0  0  0  0  0  0  0  0  0  0  0  0
    0.4478   -9.7137    0.0000 C   0  0  0  0  0  0  0  0  0  0  0  0
   -0.3180   -7.2310    0.0000 O   0  0  0  0  0  0  0  0  0  0  0  0
   -2.1015   -2.6351    0.0000 C   0  0  0  0  0  0  0  0  0  0  0  0
   -3.0367   -3.8079    0.0000 C   0  0  0  0  0  0  0  0  0  0  0  0
   -3.0367   -1.4624    0.0000 C   0  0  0  0  0  0  0  0  0  0  0  0
   -4.3881   -2.1132    0.0000 O   0  0  0  0  0  0  0  0  0  0  0  0
   -5.6275   -1.2682    0.0000 C   0  0  0  0  0  0  0  0  0  0  0  0
   -5.5154    0.2276    0.0000 O   0  0  0  0  0  0  0  0  0  0  0  0
   -6.7548    1.0725    0.0000 C   0  0  0  0  0  0  0  0  0  0  0  0
   -6.6427    2.5684    0.0000 C   0  0  0  0  0  0  0  0  0  0  0  0
   -8.1062    0.4217    0.0000 C   0  0  0  0  0  0  0  0  0  0  0  0
   -8.2183   -1.0741    0.0000 C   0  0  0  0  0  0  0  0  0  0  0  0
   -9.5698   -1.7249    0.0000 N   0  0  0  0  0  0  0  0  0  0  0  0
  -10.8091   -0.8799    0.0000 C   0  0  0  0  0  0  0  0  0  0  0  0
   -9.6819   -3.2207    0.0000 C   0  0  0  0  0  0  0  0  0  0  0  0
   -6.9790   -1.9191    0.0000 C   0  0  0  0  0  0  0  0  0  0  0  0
   -7.0910   -3.4149    0.0000 O   0  0  0  0  0  0  0  0  0  0  0  0
   -3.3705    0.0000    0.0000 C   0  0  0  0  0  0  0  0  0  0  0  0
   -4.6098   -0.8450    0.0000 C   0  0  0  0  0  0  0  0  0  0  0  0
   -4.6098    0.8450    0.0000 O   0  0  0  0  0  0  0  0  0  0  0  0
   -3.0367    1.4624    0.0000 C   0  0  0  0  0  0  0  0  0  0  0  0
   -2.1015    2.6351    0.0000 C   0  0  0  0  0  0  0  0  0  0  0  0
   -3.0367    3.8079    0.0000 C   0  0  0  0  0  0  0  0  0  0  0  0
   -0.7500    3.2860    0.0000 C   0  0  0  0  0  0  0  0  0  0  0  0
   -1.0838    4.7484    0.0000 O   0  0  0  0  0  0  0  0  0  0  0  0
    0.7500    3.2860    0.0000 C   0  0  0  0  0  0  0  0  0  0  0  0
    1.0838    4.7484    0.0000 C   0  0  0  0  0  0  0  0  0  0  0  0
    2.1015    2.6351    0.0000 C   0  0  0  0  0  0  0  0  0  0  0  0
    3.0367    3.8079    0.0000 O   0  0  0  0  0  0  0  0  0  0  0  0
    3.0367    1.4624    0.0000 C   0  0  0  0  0  0  0  0  0  0  0  0
    4.3881    2.1132    0.0000 C   0  0  0  0  0  0  0  0  0  0  0  0
  1  2  1  0
  2  3  1  0
  3  4  1  0
  4  5  1  0
  5  6  2  0
  5  7  1  0
  7  8  1  0
  8  9  1  0
  9 10  1  0
 10 11  1  0
 11 12  1  0
 12 13  1  0
 12 14  1  0
 14 15  1  0
 12 16  1  0
 16 17  1  0
 16 18  1  0
 18 19  1  0
 18 20  1  0
  8 21  1  0
 21 22  1  0
 21 23  1  0
 23 24  1  0
 24 25  1  0
 25 26  1  0
 26 27  1  0
 27 28  1  0
 27 29  1  0
 29 30  1  0
 30 31  1  0
 31 32  1  0
 31 33  1  0
 30 34  1  0
 34 35  1  0
 23 36  1  0
 36 37  1  0
 36 38  1  0
 36 39  1  0
 39 40  1  0
 40 41  1  0
 40 42  1  0
 42 43  2  0
 42 44  1  0
 44 45  1  0
 44 46  1  0
 46 47  1  0
 46 48  1  0
 48 49  1  0
 48  3  1  0
 20 10  1  0
 34 25  1  0
M  END
>  <ChEMBL_IDs>  (206) 
nan

>  <target_organism>  (206) 
nan

>  <target_molecule_pref_name>  (206) 
nan

>  <# Known Targets>  (206) 
nan

>  <Known Targets>  (206) 
nan

>  <smiles>  (206) 
CCC1OC(=O)CC(OC2CC(C)(OC)C(O)C(C)O2)C(C)C(OC2OC(C)CC(N(C)C)C2O)C(C)(O)CC(C)C(=O)C(C)C(O)C1C

$$$$

     RDKit          2D

 50 52  0  0  0  0  0  0  0  0999 V2000
    5.6205   -1.2990    0.0000 C   0  0  0  0  0  0  0  0  0  0  0  0
    4.8705    0.0000    0.0000 C   0  0  0  0  0  0  0  0  0  0  0  0
    3.3705    0.0000    0.0000 C   0  0  0  0  0  0  0  0  0  0  0  0
    3.0367   -1.4624    0.0000 O   0  0  0  0  0  0  0  0  0  0  0  0
    2.1015   -2.6351    0.0000 C   0  0  0  0  0  0  0  0  0  0  0  0
    3.0367   -3.8079    0.0000 O   0  0  0  0  0  0  0  0  0  0  0  0
    0.7500   -3.2860    0.0000 C   0  0  0  0  0  0  0  0  0  0  0  0
    1.3600   -4.4903    0.0000 C   0  0  0  0  0  0  0  0  0  0  0  0
   -0.7500   -3.2860    0.0000 C   0  0  0  0  0  0  0  0  0  0  0  0
   -1.0838   -4.7484    0.0000 O   0  0  0  0  0  0  0  0  0  0  0  0
    0.0158   -5.7686    0.0000 C   0  0  0  0  0  0  0  0  0  0  0  0
   -0.3180   -7.2310    0.0000 C   0  0  0  0  0  0  0  0  0  0  0  0
    0.7816   -8.2513    0.0000 C   0  0  0  0  0  0  0  0  0  0  0  0
    0.4478   -9.7137    0.0000 O   0  0  0  0  0  0  0  0  0  0  0  0
    1.5474  -10.7339    0.0000 C   0  0  0  0  0  0  0  0  0  0  0  0
    2.2150   -7.8091    0.0000 C   0  0  0  0  0  0  0  0  0  0  0  0
    3.3145   -8.8294    0.0000 O   0  0  0  0  0  0  0  0  0  0  0  0
    2.5487   -6.3467    0.0000 C   0  0  0  0  0  0  0  0  0  0  0  0
    3.9821   -5.9046    0.0000 C   0  0  0  0  0  0  0  0  0  0  0  0
    1.4492   -5.3265    0.0000 O   0  0  0  0  0  0  0  0  0  0  0  0
   -2.1015   -2.6351    0.0000 C   0  0  0  0  0  0  0  0  0  0  0  0
   -3.0367   -3.8079    0.0000 C   0  0  0  0  0  0  0  0  0  0  0  0
   -3.0367   -1.4624    0.0000 C   0  0  0  0  0  0  0  0  0  0  0  0
   -4.3881   -2.1132    0.0000 O   0  0  0  0  0  0  0  0  0  0  0  0
   -5.6275   -1.2682    0.0000 C   0  0  0  0  0  0  0  0  0  0  0  0
   -5.5154    0.2276    0.0000 O   0  0  0  0  0  0  0  0  0  0  0  0
   -6.7548    1.0725    0.0000 C   0  0  0  0  0  0  0  0  0  0  0  0
   -6.6427    2.5684    0.0000 C   0  0  0  0  0  0  0  0  0  0  0  0
   -8.1062    0.4217    0.0000 C   0  0  0  0  0  0  0  0  0  0  0  0
   -8.2183   -1.0741    0.0000 C   0  0  0  0  0  0  0  0  0  0  0  0
   -9.5698   -1.7249    0.0000 N   0  0  0  0  0  0  0  0  0  0  0  0
  -10.8091   -0.8799    0.0000 C   0  0  0  0  0  0  0  0  0  0  0  0
   -9.6819   -3.2207    0.0000 C   0  0  0  0  0  0  0  0  0  0  0  0
   -6.9790   -1.9191    0.0000 C   0  0  0  0  0  0  0  0  0  0  0  0
   -7.0910   -3.4149    0.0000 O   0  0  0  0  0  0  0  0  0  0  0  0
   -3.3705    0.0000    0.0000 C   0  0  0  0  0  0  0  0  0  0  0  0
   -4.6098   -0.8450    0.0000 C   0  0  0  0  0  0  0  0  0  0  0  0
   -4.6098    0.8450    0.0000 O   0  0  0  0  0  0  0  0  0  0  0  0
   -3.0367    1.4624    0.0000 C   0  0  0  0  0  0  0  0  0  0  0  0
   -2.1015    2.6351    0.0000 C   0  0  0  0  0  0  0  0  0  0  0  0
   -3.5348    3.0773    0.0000 C   0  0  0  0  0  0  0  0  0  0  0  0
   -2.2135    4.1309    0.0000 O   0  0  0  0  0  0  0  0  0  0  0  0
   -0.7500    3.2860    0.0000 C   0  0  0  0  0  0  0  0  0  0  0  0
   -1.0838    4.7484    0.0000 O   0  0  0  0  0  0  0  0  0  0  0  0
    0.7500    3.2860    0.0000 C   0  0  0  0  0  0  0  0  0  0  0  0
    1.0838    4.7484    0.0000 C   0  0  0  0  0  0  0  0  0  0  0  0
    2.1015    2.6351    0.0000 C   0  0  0  0  0  0  0  0  0  0  0  0
    3.0367    3.8079    0.0000 O   0  0  0  0  0  0  0  0  0  0  0  0
    3.0367    1.4624    0.0000 C   0  0  0  0  0  0  0  0  0  0  0  0
    4.3881    2.1132    0.0000 C   0  0  0  0  0  0  0  0  0  0  0  0
  1  2  1  0
  2  3  1  0
  3  4  1  0
  4  5  1  0
  5  6  2  0
  5  7  1  0
  7  8  1  0
  7  9  1  0
  9 10  1  0
 10 11  1  0
 11 12  1  0
 12 13  1  0
 13 14  1  0
 14 15  1  0
 13 16  1  0
 16 17  1  0
 16 18  1  0
 18 19  1  0
 18 20  1  0
  9 21  1  0
 21 22  1  0
 21 23  1  0
 23 24  1  0
 24 25  1  0
 25 26  1  0
 26 27  1  0
 27 28  1  0
 27 29  1  0
 29 30  1  0
 30 31  1  0
 31 32  1  0
 31 33  1  0
 30 34  1  0
 34 35  1  0
 23 36  1  0
 36 37  1  0
 36 38  1  0
 36 39  1  0
 39 40  1  0
 40 41  1  0
 40 42  1  0
 40 43  1  0
 43 44  2  0
 43 45  1  0
 45 46  1  0
 45 47  1  0
 47 48  1  0
 47 49  1  0
 49 50  1  0
 49  3  1  0
 20 11  1  0
 34 25  1  0
M  END
>  <ChEMBL_IDs>  (207) 
nan

>  <target_organism>  (207) 
nan

>  <target_molecule_pref_name>  (207) 
nan

>  <# Known Targets>  (207) 
nan

>  <Known Targets>  (207) 
nan

>  <smiles>  (207) 
CCC1OC(=O)C(C)C(OC2CC(OC)C(O)C(C)O2)C(C)C(OC2OC(C)CC(N(C)C)C2O)C(C)(O)CC(C)(O)C(=O)C(C)C(O)C1C

$$$$

     RDKit          2D

 50 52  0  0  0  0  0  0  0  0999 V2000
    5.6205   -1.2990    0.0000 C   0  0  0  0  0  0  0  0  0  0  0  0
    4.8705    0.0000    0.0000 C   0  0  0  0  0  0  0  0  0  0  0  0
    3.3705    0.0000    0.0000 C   0  0  0  0  0  0  0  0  0  0  0  0
    3.0367   -1.4624    0.0000 O   0  0  0  0  0  0  0  0  0  0  0  0
    2.1015   -2.6351    0.0000 C   0  0  0  0  0  0  0  0  0  0  0  0
    3.0367   -3.8079    0.0000 O   0  0  0  0  0  0  0  0  0  0  0  0
    0.7500   -3.2860    0.0000 C   0  0  0  0  0  0  0  0  0  0  0  0
    1.3600   -4.4903    0.0000 C   0  0  0  0  0  0  0  0  0  0  0  0
   -0.7500   -3.2860    0.0000 C   0  0  0  0  0  0  0  0  0  0  0  0
   -1.0838   -4.7484    0.0000 O   0  0  0  0  0  0  0  0  0  0  0  0
    0.0158   -5.7686    0.0000 C   0  0  0  0  0  0  0  0  0  0  0  0
   -0.3180   -7.2310    0.0000 C   0  0  0  0  0  0  0  0  0  0  0  0
    0.7816   -8.2513    0.0000 C   0  0  0  0  0  0  0  0  0  0  0  0
    0.4478   -9.7137    0.0000 O   0  0  0  0  0  0  0  0  0  0  0  0
    1.5474  -10.7339    0.0000 C   0  0  0  0  0  0  0  0  0  0  0  0
    2.2150   -7.8091    0.0000 C   0  0  0  0  0  0  0  0  0  0  0  0
    3.3145   -8.8294    0.0000 O   0  0  0  0  0  0  0  0  0  0  0  0
    2.5487   -6.3467    0.0000 C   0  0  0  0  0  0  0  0  0  0  0  0
    3.9821   -5.9046    0.0000 C   0  0  0  0  0  0  0  0  0  0  0  0
    1.4492   -5.3265    0.0000 O   0  0  0  0  0  0  0  0  0  0  0  0
   -2.1015   -2.6351    0.0000 C   0  0  0  0  0  0  0  0  0  0  0  0
   -3.0367   -3.8079    0.0000 C   0  0  0  0  0  0  0  0  0  0  0  0
   -3.0367   -1.4624    0.0000 C   0  0  0  0  0  0  0  0  0  0  0  0
   -4.3881   -2.1132    0.0000 O   0  0  0  0  0  0  0  0  0  0  0  0
   -5.6275   -1.2682    0.0000 C   0  0  0  0  0  0  0  0  0  0  0  0
   -5.5154    0.2276    0.0000 O   0  0  0  0  0  0  0  0  0  0  0  0
   -6.7548    1.0725    0.0000 C   0  0  0  0  0  0  0  0  0  0  0  0
   -6.6427    2.5684    0.0000 C   0  0  0  0  0  0  0  0  0  0  0  0
   -8.1062    0.4217    0.0000 C   0  0  0  0  0  0  0  0  0  0  0  0
   -8.2183   -1.0741    0.0000 C   0  0  0  0  0  0  0  0  0  0  0  0
   -9.5698   -1.7249    0.0000 N   0  0  0  0  0  0  0  0  0  0  0  0
  -10.8091   -0.8799    0.0000 C   0  0  0  0  0  0  0  0  0  0  0  0
   -9.6819   -3.2207    0.0000 C   0  0  0  0  0  0  0  0  0  0  0  0
   -6.9790   -1.9191    0.0000 C   0  0  0  0  0  0  0  0  0  0  0  0
   -7.0910   -3.4149    0.0000 O   0  0  0  0  0  0  0  0  0  0  0  0
   -3.3705    0.0000    0.0000 C   0  0  0  0  0  0  0  0  0  0  0  0
   -4.6098   -0.8450    0.0000 C   0  0  0  0  0  0  0  0  0  0  0  0
   -4.6098    0.8450    0.0000 O   0  0  0  0  0  0  0  0  0  0  0  0
   -3.0367    1.4624    0.0000 C   0  0  0  0  0  0  0  0  0  0  0  0
   -2.1015    2.6351    0.0000 C   0  0  0  0  0  0  0  0  0  0  0  0
   -3.5348    3.0773    0.0000 C   0  0  0  0  0  0  0  0  0  0  0  0
   -2.2135    4.1309    0.0000 O   0  0  0  0  0  0  0  0  0  0  0  0
   -0.7500    3.2860    0.0000 C   0  0  0  0  0  0  0  0  0  0  0  0
   -1.0838    4.7484    0.0000 O   0  0  0  0  0  0  0  0  0  0  0  0
    0.7500    3.2860    0.0000 C   0  0  0  0  0  0  0  0  0  0  0  0
    1.0838    4.7484    0.0000 C   0  0  0  0  0  0  0  0  0  0  0  0
    2.1015    2.6351    0.0000 C   0  0  0  0  0  0  0  0  0  0  0  0
    3.0367    3.8079    0.0000 O   0  0  0  0  0  0  0  0  0  0  0  0
    3.0367    1.4624    0.0000 C   0  0  0  0  0  0  0  0  0  0  0  0
    4.3881    2.1132    0.0000 C   0  0  0  0  0  0  0  0  0  0  0  0
  1  2  1  0
  2  3  1  0
  3  4  1  0
  4  5  1  0
  5  6  2  0
  5  7  1  0
  7  8  1  0
  7  9  1  0
  9 10  1  0
 10 11  1  0
 11 12  1  0
 12 13  1  0
 13 14  1  0
 14 15  1  0
 13 16  1  0
 16 17  1  0
 16 18  1  0
 18 19  1  0
 18 20  1  0
  9 21  1  0
 21 22  1  0
 21 23  1  0
 23 24  1  0
 24 25  1  0
 25 26  1  0
 26 27  1  0
 27 28  1  0
 27 29  1  0
 29 30  1  0
 30 31  1  0
 31 32  1  0
 31 33  1  0
 30 34  1  0
 34 35  1  0
 23 36  1  0
 36 37  1  0
 36 38  1  0
 36 39  1  0
 39 40  1  0
 40 41  1  0
 40 42  1  0
 40 43  1  0
 43 44  2  0
 43 45  1  0
 45 46  1  0
 45 47  1  0
 47 48  1  0
 47 49  1  0
 49 50  1  0
 49  3  1  0
 20 11  1  0
 34 25  1  0
M  END
>  <ChEMBL_IDs>  (208) 
nan

>  <target_organism>  (208) 
nan

>  <target_molecule_pref_name>  (208) 
nan

>  <# Known Targets>  (208) 
nan

>  <Known Targets>  (208) 
nan

>  <smiles>  (208) 
CCC1OC(=O)C(C)C(OC2CC(OC)C(O)C(C)O2)C(C)C(OC2OC(C)CC(N(C)C)C2O)C(C)(O)CC(C)(O)C(=O)C(C)C(O)C1C

$$$$

     RDKit          2D

 50 52  0  0  0  0  0  0  0  0999 V2000
    5.6205   -1.2990    0.0000 C   0  0  0  0  0  0  0  0  0  0  0  0
    4.8705    0.0000    0.0000 C   0  0  0  0  0  0  0  0  0  0  0  0
    3.3705    0.0000    0.0000 C   0  0  0  0  0  0  0  0  0  0  0  0
    3.0367   -1.4624    0.0000 O   0  0  0  0  0  0  0  0  0  0  0  0
    2.1015   -2.6351    0.0000 C   0  0  0  0  0  0  0  0  0  0  0  0
    3.0367   -3.8079    0.0000 O   0  0  0  0  0  0  0  0  0  0  0  0
    0.7500   -3.2860    0.0000 C   0  0  0  0  0  0  0  0  0  0  0  0
    1.3600   -4.4903    0.0000 C   0  0  0  0  0  0  0  0  0  0  0  0
   -0.7500   -3.2860    0.0000 C   0  0  0  0  0  0  0  0  0  0  0  0
   -1.0838   -4.7484    0.0000 O   0  0  0  0  0  0  0  0  0  0  0  0
    0.0158   -5.7686    0.0000 C   0  0  0  0  0  0  0  0  0  0  0  0
   -0.3180   -7.2310    0.0000 C   0  0  0  0  0  0  0  0  0  0  0  0
    0.7816   -8.2513    0.0000 C   0  0  0  0  0  0  0  0  0  0  0  0
    1.4659   -9.5861    0.0000 C   0  0  0  0  0  0  0  0  0  0  0  0
   -0.4141   -9.1570    0.0000 O   0  0  0  0  0  0  0  0  0  0  0  0
   -0.2276  -10.6453    0.0000 C   0  0  0  0  0  0  0  0  0  0  0  0
    2.2150   -7.8091    0.0000 C   0  0  0  0  0  0  0  0  0  0  0  0
    3.3145   -8.8294    0.0000 O   0  0  0  0  0  0  0  0  0  0  0  0
    2.5487   -6.3467    0.0000 C   0  0  0  0  0  0  0  0  0  0  0  0
    3.9821   -5.9046    0.0000 C   0  0  0  0  0  0  0  0  0  0  0  0
    1.4492   -5.3265    0.0000 O   0  0  0  0  0  0  0  0  0  0  0  0
   -2.1015   -2.6351    0.0000 C   0  0  0  0  0  0  0  0  0  0  0  0
   -3.0367   -3.8079    0.0000 C   0  0  0  0  0  0  0  0  0  0  0  0
   -3.0367   -1.4624    0.0000 C   0  0  0  0  0  0  0  0  0  0  0  0
   -4.3881   -2.1132    0.0000 O   0  0  0  0  0  0  0  0  0  0  0  0
   -5.6275   -1.2682    0.0000 C   0  0  0  0  0  0  0  0  0  0  0  0
   -5.5154    0.2276    0.0000 O   0  0  0  0  0  0  0  0  0  0  0  0
   -6.7548    1.0725    0.0000 C   0  0  0  0  0  0  0  0  0  0  0  0
   -6.6427    2.5684    0.0000 C   0  0  0  0  0  0  0  0  0  0  0  0
   -8.1062    0.4217    0.0000 C   0  0  0  0  0  0  0  0  0  0  0  0
   -8.2183   -1.0741    0.0000 C   0  0  0  0  0  0  0  0  0  0  0  0
   -9.5698   -1.7249    0.0000 N   0  0  0  0  0  0  0  0  0  0  0  0
   -6.9790   -1.9191    0.0000 C   0  0  0  0  0  0  0  0  0  0  0  0
   -7.0910   -3.4149    0.0000 O   0  0  0  0  0  0  0  0  0  0  0  0
   -3.3705    0.0000    0.0000 C   0  0  0  0  0  0  0  0  0  0  0  0
   -4.6098   -0.8450    0.0000 C   0  0  0  0  0  0  0  0  0  0  0  0
   -4.6098    0.8450    0.0000 O   0  0  0  0  0  0  0  0  0  0  0  0
   -5.3904    0.6832    0.0000 C   0  0  0  0  0  0  0  0  0  0  0  0
   -3.0367    1.4624    0.0000 C   0  0  0  0  0  0  0  0  0  0  0  0
   -2.1015    2.6351    0.0000 C   0  0  0  0  0  0  0  0  0  0  0  0
   -3.0367    3.8079    0.0000 C   0  0  0  0  0  0  0  0  0  0  0  0
   -0.7500    3.2860    0.0000 C   0  0  0  0  0  0  0  0  0  0  0  0
   -1.0838    4.7484    0.0000 O   0  0  0  0  0  0  0  0  0  0  0  0
    0.7500    3.2860    0.0000 C   0  0  0  0  0  0  0  0  0  0  0  0
    1.0838    4.7484    0.0000 C   0  0  0  0  0  0  0  0  0  0  0  0
    2.1015    2.6351    0.0000 C   0  0  0  0  0  0  0  0  0  0  0  0
    3.0367    3.8079    0.0000 O   0  0  0  0  0  0  0  0  0  0  0  0
    3.0367    1.4624    0.0000 C   0  0  0  0  0  0  0  0  0  0  0  0
    3.7867    2.7614    0.0000 C   0  0  0  0  0  0  0  0  0  0  0  0
    4.5199    1.2388    0.0000 O   0  0  0  0  0  0  0  0  0  0  0  0
  1  2  1  0
  3  2  1  1
  3  4  1  0
  4  5  1  0
  5  6  2  0
  5  7  1  0
  7  8  1  6
  7  9  1  0
  9 10  1  1
 11 10  1  6
 11 12  1  0
 12 13  1  0
 13 14  1  1
 13 15  1  0
 15 16  1  0
 13 17  1  0
 17 18  1  6
 17 19  1  0
 19 20  1  1
 19 21  1  0
  9 22  1  0
 22 23  1  6
 22 24  1  0
 24 25  1  1
 26 25  1  1
 26 27  1  0
 27 28  1  0
 28 29  1  1
 28 30  1  0
 30 31  1  0
 31 32  1  1
 31 33  1  0
 33 34  1  6
 24 35  1  0
 35 36  1  1
 35 37  1  0
 37 38  1  0
 35 39  1  0
 39 40  1  0
 40 41  1  1
 40 42  1  0
 42 43  2  0
 42 44  1  0
 44 45  1  6
 44 46  1  0
 46 47  1  1
 46 48  1  0
 48 49  1  1
 48 50  1  0
 48  3  1  0
 21 11  1  0
 33 26  1  0
M  END
>  <ChEMBL_IDs>  (209) 
CHEMBL2022718

>  <target_organism>  (209) 
Staphylococcus aureus

>  <target_molecule_pref_name>  (209) 
nan

>  <# Known Targets>  (209) 
nan

>  <Known Targets>  (209) 
nan

>  <smiles>  (209) 
CC[C@H]1OC(=O)[C@H](C)[C@@H](O[C@H]2C[C@@](C)(OC)[C@@H](O)[C@H](C)O2)[C@H](C)[C@@H](O[C@@H]2O[C@H](C)C[C@H](N)[C@H]2O)[C@](C)(OC)C[C@@H](C)C(=O)[C@H](C)[C@@H](O)[C@]1(C)O

$$$$

     RDKit          2D

 50 52  0  0  0  0  0  0  0  0999 V2000
    5.6205   -1.2990    0.0000 C   0  0  0  0  0  0  0  0  0  0  0  0
    4.8705    0.0000    0.0000 C   0  0  0  0  0  0  0  0  0  0  0  0
    3.3705    0.0000    0.0000 C   0  0  0  0  0  0  0  0  0  0  0  0
    3.0367   -1.4624    0.0000 O   0  0  0  0  0  0  0  0  0  0  0  0
    2.1015   -2.6351    0.0000 C   0  0  0  0  0  0  0  0  0  0  0  0
    3.0367   -3.8079    0.0000 O   0  0  0  0  0  0  0  0  0  0  0  0
    0.7500   -3.2860    0.0000 C   0  0  0  0  0  0  0  0  0  0  0  0
    1.3600   -4.4903    0.0000 C   0  0  0  0  0  0  0  0  0  0  0  0
   -0.7500   -3.2860    0.0000 C   0  0  0  0  0  0  0  0  0  0  0  0
   -1.0838   -4.7484    0.0000 O   0  0  0  0  0  0  0  0  0  0  0  0
    0.0158   -5.7686    0.0000 C   0  0  0  0  0  0  0  0  0  0  0  0
   -0.3180   -7.2310    0.0000 C   0  0  0  0  0  0  0  0  0  0  0  0
    0.7816   -8.2513    0.0000 C   0  0  0  0  0  0  0  0  0  0  0  0
    1.4659   -9.5861    0.0000 C   0  0  0  0  0  0  0  0  0  0  0  0
   -0.4141   -9.1570    0.0000 O   0  0  0  0  0  0  0  0  0  0  0  0
   -0.2276  -10.6453    0.0000 C   0  0  0  0  0  0  0  0  0  0  0  0
    2.2150   -7.8091    0.0000 C   0  0  0  0  0  0  0  0  0  0  0  0
    3.3145   -8.8294    0.0000 O   0  0  0  0  0  0  0  0  0  0  0  0
    2.5487   -6.3467    0.0000 C   0  0  0  0  0  0  0  0  0  0  0  0
    3.9821   -5.9046    0.0000 C   0  0  0  0  0  0  0  0  0  0  0  0
    1.4492   -5.3265    0.0000 O   0  0  0  0  0  0  0  0  0  0  0  0
   -2.1015   -2.6351    0.0000 C   0  0  0  0  0  0  0  0  0  0  0  0
   -3.0367   -3.8079    0.0000 C   0  0  0  0  0  0  0  0  0  0  0  0
   -3.0367   -1.4624    0.0000 C   0  0  0  0  0  0  0  0  0  0  0  0
   -4.3881   -2.1132    0.0000 O   0  0  0  0  0  0  0  0  0  0  0  0
   -5.6275   -1.2682    0.0000 C   0  0  0  0  0  0  0  0  0  0  0  0
   -5.5154    0.2276    0.0000 O   0  0  0  0  0  0  0  0  0  0  0  0
   -6.7548    1.0725    0.0000 C   0  0  0  0  0  0  0  0  0  0  0  0
   -6.6427    2.5684    0.0000 C   0  0  0  0  0  0  0  0  0  0  0  0
   -8.1062    0.4217    0.0000 C   0  0  0  0  0  0  0  0  0  0  0  0
   -8.2183   -1.0741    0.0000 C   0  0  0  0  0  0  0  0  0  0  0  0
   -9.5698   -1.7249    0.0000 N   0  0  0  0  0  0  0  0  0  0  0  0
  -10.8091   -0.8799    0.0000 C   0  0  0  0  0  0  0  0  0  0  0  0
   -6.9790   -1.9191    0.0000 C   0  0  0  0  0  0  0  0  0  0  0  0
   -7.0910   -3.4149    0.0000 O   0  0  0  0  0  0  0  0  0  0  0  0
   -3.3705    0.0000    0.0000 C   0  0  0  0  0  0  0  0  0  0  0  0
   -4.6098   -0.8450    0.0000 C   0  0  0  0  0  0  0  0  0  0  0  0
   -4.6098    0.8450    0.0000 O   0  0  0  0  0  0  0  0  0  0  0  0
   -3.0367    1.4624    0.0000 C   0  0  0  0  0  0  0  0  0  0  0  0
   -2.1015    2.6351    0.0000 C   0  0  0  0  0  0  0  0  0  0  0  0
   -3.0367    3.8079    0.0000 C   0  0  0  0  0  0  0  0  0  0  0  0
   -0.7500    3.2860    0.0000 C   0  0  0  0  0  0  0  0  0  0  0  0
   -1.0838    4.7484    0.0000 O   0  0  0  0  0  0  0  0  0  0  0  0
    0.7500    3.2860    0.0000 C   0  0  0  0  0  0  0  0  0  0  0  0
    1.0838    4.7484    0.0000 C   0  0  0  0  0  0  0  0  0  0  0  0
    2.1015    2.6351    0.0000 C   0  0  0  0  0  0  0  0  0  0  0  0
    3.0367    3.8079    0.0000 O   0  0  0  0  0  0  0  0  0  0  0  0
    3.0367    1.4624    0.0000 C   0  0  0  0  0  0  0  0  0  0  0  0
    3.7867    2.7614    0.0000 C   0  0  0  0  0  0  0  0  0  0  0  0
    4.5199    1.2388    0.0000 O   0  0  0  0  0  0  0  0  0  0  0  0
  1  2  1  0
  3  2  1  1
  3  4  1  0
  4  5  1  0
  5  6  2  0
  5  7  1  0
  7  8  1  6
  7  9  1  0
  9 10  1  1
 11 10  1  6
 11 12  1  0
 12 13  1  0
 13 14  1  1
 13 15  1  0
 15 16  1  0
 13 17  1  0
 17 18  1  6
 17 19  1  0
 19 20  1  1
 19 21  1  0
  9 22  1  0
 22 23  1  6
 22 24  1  0
 24 25  1  1
 26 25  1  1
 26 27  1  0
 27 28  1  0
 28 29  1  1
 28 30  1  0
 30 31  1  0
 31 32  1  1
 32 33  1  0
 31 34  1  0
 34 35  1  6
 24 36  1  0
 36 37  1  1
 36 38  1  0
 36 39  1  0
 39 40  1  0
 40 41  1  1
 40 42  1  0
 42 43  2  0
 42 44  1  0
 44 45  1  6
 44 46  1  0
 46 47  1  1
 46 48  1  0
 48 49  1  1
 48 50  1  0
 48  3  1  0
 21 11  1  0
 34 26  1  0
M  END
>  <ChEMBL_IDs>  (210) 
CHEMBL2063468

>  <target_organism>  (210) 
Plasmodium falciparum

>  <target_molecule_pref_name>  (210) 
nan

>  <# Known Targets>  (210) 
nan

>  <Known Targets>  (210) 
nan

>  <smiles>  (210) 
CC[C@H]1OC(=O)[C@H](C)[C@@H](O[C@H]2C[C@@](C)(OC)[C@@H](O)[C@H](C)O2)[C@H](C)[C@@H](O[C@@H]2O[C@H](C)C[C@H](NC)[C@H]2O)[C@](C)(O)C[C@@H](C)C(=O)[C@H](C)[C@@H](O)[C@]1(C)O

$$$$

     RDKit          2D

 50 52  0  0  0  0  0  0  0  0999 V2000
    5.6205   -1.2990    0.0000 C   0  0  0  0  0  0  0  0  0  0  0  0
    4.8705    0.0000    0.0000 C   0  0  0  0  0  0  0  0  0  0  0  0
    3.3705    0.0000    0.0000 C   0  0  0  0  0  0  0  0  0  0  0  0
    3.0367   -1.4624    0.0000 O   0  0  0  0  0  0  0  0  0  0  0  0
    2.1015   -2.6351    0.0000 C   0  0  0  0  0  0  0  0  0  0  0  0
    3.0367   -3.8079    0.0000 O   0  0  0  0  0  0  0  0  0  0  0  0
    0.7500   -3.2860    0.0000 C   0  0  0  0  0  0  0  0  0  0  0  0
    1.3600   -4.4903    0.0000 C   0  0  0  0  0  0  0  0  0  0  0  0
   -0.7500   -3.2860    0.0000 C   0  0  0  0  0  0  0  0  0  0  0  0
   -1.0838   -4.7484    0.0000 O   0  0  0  0  0  0  0  0  0  0  0  0
    0.0158   -5.7686    0.0000 C   0  0  0  0  0  0  0  0  0  0  0  0
   -0.3180   -7.2310    0.0000 C   0  0  0  0  0  0  0  0  0  0  0  0
    0.7816   -8.2513    0.0000 C   0  0  0  0  0  0  0  0  0  0  0  0
    1.4659   -9.5861    0.0000 C   0  0  0  0  0  0  0  0  0  0  0  0
   -0.4141   -9.1570    0.0000 O   0  0  0  0  0  0  0  0  0  0  0  0
    2.2150   -7.8091    0.0000 C   0  0  0  0  0  0  0  0  0  0  0  0
    3.3145   -8.8294    0.0000 O   0  0  0  0  0  0  0  0  0  0  0  0
    2.5487   -6.3467    0.0000 C   0  0  0  0  0  0  0  0  0  0  0  0
    3.9821   -5.9046    0.0000 C   0  0  0  0  0  0  0  0  0  0  0  0
    1.4492   -5.3265    0.0000 O   0  0  0  0  0  0  0  0  0  0  0  0
   -2.1015   -2.6351    0.0000 C   0  0  0  0  0  0  0  0  0  0  0  0
   -3.0367   -3.8079    0.0000 C   0  0  0  0  0  0  0  0  0  0  0  0
   -3.0367   -1.4624    0.0000 C   0  0  0  0  0  0  0  0  0  0  0  0
   -4.3881   -2.1132    0.0000 O   0  0  0  0  0  0  0  0  0  0  0  0
   -5.6275   -1.2682    0.0000 C   0  0  0  0  0  0  0  0  0  0  0  0
   -5.5154    0.2276    0.0000 O   0  0  0  0  0  0  0  0  0  0  0  0
   -6.7548    1.0725    0.0000 C   0  0  0  0  0  0  0  0  0  0  0  0
   -6.6427    2.5684    0.0000 C   0  0  0  0  0  0  0  0  0  0  0  0
   -8.1062    0.4217    0.0000 C   0  0  0  0  0  0  0  0  0  0  0  0
   -8.2183   -1.0741    0.0000 C   0  0  0  0  0  0  0  0  0  0  0  0
   -9.5698   -1.7249    0.0000 N   0  0  0  0  0  0  0  0  0  0  0  0
  -10.8091   -0.8799    0.0000 C   0  0  0  0  0  0  0  0  0  0  0  0
   -9.6819   -3.2207    0.0000 C   0  0  0  0  0  0  0  0  0  0  0  0
   -6.9790   -1.9191    0.0000 C   0  0  0  0  0  0  0  0  0  0  0  0
   -7.0910   -3.4149    0.0000 O   0  0  0  0  0  0  0  0  0  0  0  0
   -3.3705    0.0000    0.0000 C   0  0  0  0  0  0  0  0  0  0  0  0
   -4.6098   -0.8450    0.0000 C   0  0  0  0  0  0  0  0  0  0  0  0
   -4.6098    0.8450    0.0000 O   0  0  0  0  0  0  0  0  0  0  0  0
   -3.0367    1.4624    0.0000 C   0  0  0  0  0  0  0  0  0  0  0  0
   -2.1015    2.6351    0.0000 C   0  0  0  0  0  0  0  0  0  0  0  0
   -3.0367    3.8079    0.0000 C   0  0  0  0  0  0  0  0  0  0  0  0
   -0.7500    3.2860    0.0000 C   0  0  0  0  0  0  0  0  0  0  0  0
   -1.0838    4.7484    0.0000 O   0  0  0  0  0  0  0  0  0  0  0  0
    0.7500    3.2860    0.0000 C   0  0  0  0  0  0  0  0  0  0  0  0
    1.0838    4.7484    0.0000 C   0  0  0  0  0  0  0  0  0  0  0  0
    2.1015    2.6351    0.0000 C   0  0  0  0  0  0  0  0  0  0  0  0
    3.0367    3.8079    0.0000 O   0  0  0  0  0  0  0  0  0  0  0  0
    3.0367    1.4624    0.0000 C   0  0  0  0  0  0  0  0  0  0  0  0
    3.7867    2.7614    0.0000 C   0  0  0  0  0  0  0  0  0  0  0  0
    4.5199    1.2388    0.0000 O   0  0  0  0  0  0  0  0  0  0  0  0
  1  2  1  0
  2  3  1  0
  3  4  1  0
  4  5  1  0
  5  6  2  0
  5  7  1  0
  7  8  1  0
  7  9  1  0
  9 10  1  0
 10 11  1  0
 11 12  1  0
 12 13  1  0
 13 14  1  0
 13 15  1  0
 13 16  1  0
 16 17  1  0
 16 18  1  0
 18 19  1  0
 18 20  1  0
  9 21  1  0
 21 22  1  0
 21 23  1  0
 23 24  1  0
 24 25  1  0
 25 26  1  0
 26 27  1  0
 27 28  1  0
 27 29  1  0
 29 30  1  0
 30 31  1  0
 31 32  1  0
 31 33  1  0
 30 34  1  0
 34 35  1  0
 23 36  1  0
 36 37  1  0
 36 38  1  0
 36 39  1  0
 39 40  1  0
 40 41  1  0
 40 42  1  0
 42 43  2  0
 42 44  1  0
 44 45  1  0
 44 46  1  0
 46 47  1  0
 46 48  1  0
 48 49  1  0
 48 50  1  0
 48  3  1  0
 20 11  1  0
 34 25  1  0
M  END
>  <ChEMBL_IDs>  (211) 
nan

>  <target_organism>  (211) 
nan

>  <target_molecule_pref_name>  (211) 
nan

>  <# Known Targets>  (211) 
nan

>  <Known Targets>  (211) 
nan

>  <smiles>  (211) 
CCC1OC(=O)C(C)C(OC2CC(C)(O)C(O)C(C)O2)C(C)C(OC2OC(C)CC(N(C)C)C2O)C(C)(O)CC(C)C(=O)C(C)C(O)C1(C)O

$$$$

     RDKit          2D

 50 52  0  0  0  0  0  0  0  0999 V2000
    5.6205   -1.2990    0.0000 C   0  0  0  0  0  0  0  0  0  0  0  0
    4.8705    0.0000    0.0000 C   0  0  0  0  0  0  0  0  0  0  0  0
    3.3705    0.0000    0.0000 C   0  0  0  0  0  0  0  0  0  0  0  0
    3.0367   -1.4624    0.0000 O   0  0  0  0  0  0  0  0  0  0  0  0
    2.1015   -2.6351    0.0000 C   0  0  0  0  0  0  0  0  0  0  0  0
    3.0367   -3.8079    0.0000 O   0  0  0  0  0  0  0  0  0  0  0  0
    0.7500   -3.2860    0.0000 C   0  0  0  0  0  0  0  0  0  0  0  0
    1.3600   -4.4903    0.0000 C   0  0  0  0  0  0  0  0  0  0  0  0
   -0.7500   -3.2860    0.0000 C   0  0  0  0  0  0  0  0  0  0  0  0
   -1.0838   -4.7484    0.0000 O   0  0  0  0  0  0  0  0  0  0  0  0
    0.0158   -5.7686    0.0000 C   0  0  0  0  0  0  0  0  0  0  0  0
   -0.3180   -7.2310    0.0000 C   0  0  0  0  0  0  0  0  0  0  0  0
    0.7816   -8.2513    0.0000 C   0  0  0  0  0  0  0  0  0  0  0  0
    1.4659   -9.5861    0.0000 C   0  0  0  0  0  0  0  0  0  0  0  0
   -0.4141   -9.1570    0.0000 O   0  0  0  0  0  0  0  0  0  0  0  0
    2.2150   -7.8091    0.0000 C   0  0  0  0  0  0  0  0  0  0  0  0
    3.3145   -8.8294    0.0000 O   0  0  0  0  0  0  0  0  0  0  0  0
    2.5487   -6.3467    0.0000 C   0  0  0  0  0  0  0  0  0  0  0  0
    3.9821   -5.9046    0.0000 C   0  0  0  0  0  0  0  0  0  0  0  0
    1.4492   -5.3265    0.0000 O   0  0  0  0  0  0  0  0  0  0  0  0
   -2.1015   -2.6351    0.0000 C   0  0  0  0  0  0  0  0  0  0  0  0
   -3.0367   -3.8079    0.0000 C   0  0  0  0  0  0  0  0  0  0  0  0
   -3.0367   -1.4624    0.0000 C   0  0  0  0  0  0  0  0  0  0  0  0
   -4.3881   -2.1132    0.0000 O   0  0  0  0  0  0  0  0  0  0  0  0
   -5.6275   -1.2682    0.0000 C   0  0  0  0  0  0  0  0  0  0  0  0
   -5.5154    0.2276    0.0000 O   0  0  0  0  0  0  0  0  0  0  0  0
   -6.7548    1.0725    0.0000 C   0  0  0  0  0  0  0  0  0  0  0  0
   -6.6427    2.5684    0.0000 C   0  0  0  0  0  0  0  0  0  0  0  0
   -8.1062    0.4217    0.0000 C   0  0  0  0  0  0  0  0  0  0  0  0
   -8.2183   -1.0741    0.0000 C   0  0  0  0  0  0  0  0  0  0  0  0
   -9.5698   -1.7249    0.0000 N   0  0  0  0  0  0  0  0  0  0  0  0
  -10.8091   -0.8799    0.0000 C   0  0  0  0  0  0  0  0  0  0  0  0
   -9.6819   -3.2207    0.0000 C   0  0  0  0  0  0  0  0  0  0  0  0
   -6.9790   -1.9191    0.0000 C   0  0  0  0  0  0  0  0  0  0  0  0
   -7.0910   -3.4149    0.0000 O   0  0  0  0  0  0  0  0  0  0  0  0
   -3.3705    0.0000    0.0000 C   0  0  0  0  0  0  0  0  0  0  0  0
   -4.6098   -0.8450    0.0000 C   0  0  0  0  0  0  0  0  0  0  0  0
   -4.6098    0.8450    0.0000 O   0  0  0  0  0  0  0  0  0  0  0  0
   -3.0367    1.4624    0.0000 C   0  0  0  0  0  0  0  0  0  0  0  0
   -2.1015    2.6351    0.0000 C   0  0  0  0  0  0  0  0  0  0  0  0
   -3.0367    3.8079    0.0000 C   0  0  0  0  0  0  0  0  0  0  0  0
   -0.7500    3.2860    0.0000 C   0  0  0  0  0  0  0  0  0  0  0  0
   -1.0838    4.7484    0.0000 O   0  0  0  0  0  0  0  0  0  0  0  0
    0.7500    3.2860    0.0000 C   0  0  0  0  0  0  0  0  0  0  0  0
    1.0838    4.7484    0.0000 C   0  0  0  0  0  0  0  0  0  0  0  0
    2.1015    2.6351    0.0000 C   0  0  0  0  0  0  0  0  0  0  0  0
    3.0367    3.8079    0.0000 O   0  0  0  0  0  0  0  0  0  0  0  0
    3.0367    1.4624    0.0000 C   0  0  0  0  0  0  0  0  0  0  0  0
    3.7867    2.7614    0.0000 C   0  0  0  0  0  0  0  0  0  0  0  0
    4.5199    1.2388    0.0000 O   0  0  0  0  0  0  0  0  0  0  0  0
  1  2  1  0
  3  2  1  1
  3  4  1  0
  4  5  1  0
  5  6  2  0
  5  7  1  0
  7  8  1  6
  7  9  1  0
  9 10  1  1
 10 11  1  0
 11 12  1  0
 12 13  1  0
 13 14  1  1
 13 15  1  0
 13 16  1  0
 16 17  1  6
 16 18  1  0
 18 19  1  1
 18 20  1  0
  9 21  1  0
 21 22  1  6
 21 23  1  0
 23 24  1  1
 24 25  1  0
 25 26  1  0
 26 27  1  0
 27 28  1  1
 27 29  1  0
 29 30  1  0
 30 31  1  1
 31 32  1  0
 31 33  1  0
 30 34  1  0
 34 35  1  6
 23 36  1  0
 36 37  1  1
 36 38  1  0
 36 39  1  0
 39 40  1  0
 40 41  1  1
 40 42  1  0
 42 43  2  0
 42 44  1  0
 44 45  1  6
 44 46  1  0
 46 47  1  1
 46 48  1  0
 48 49  1  1
 48 50  1  0
 48  3  1  0
 20 11  1  0
 34 25  1  0
M  END
>  <ChEMBL_IDs>  (212) 
nan

>  <target_organism>  (212) 
nan

>  <target_molecule_pref_name>  (212) 
nan

>  <# Known Targets>  (212) 
nan

>  <Known Targets>  (212) 
nan

>  <smiles>  (212) 
CC[C@H]1OC(=O)[C@H](C)[C@@H](OC2C[C@@](C)(O)[C@@H](O)[C@H](C)O2)[C@H](C)[C@@H](OC2O[C@H](C)C[C@H](N(C)C)[C@H]2O)[C@](C)(O)C[C@@H](C)C(=O)[C@H](C)[C@@H](O)[C@]1(C)O

$$$$

     RDKit          2D

 50 52  0  0  0  0  0  0  0  0999 V2000
    5.6205   -1.2990    0.0000 C   0  0  0  0  0  0  0  0  0  0  0  0
    4.8705    0.0000    0.0000 C   0  0  0  0  0  0  0  0  0  0  0  0
    3.3705    0.0000    0.0000 C   0  0  0  0  0  0  0  0  0  0  0  0
    3.0367   -1.4624    0.0000 O   0  0  0  0  0  0  0  0  0  0  0  0
    2.1015   -2.6351    0.0000 C   0  0  0  0  0  0  0  0  0  0  0  0
    3.0367   -3.8079    0.0000 O   0  0  0  0  0  0  0  0  0  0  0  0
    0.7500   -3.2860    0.0000 C   0  0  0  0  0  0  0  0  0  0  0  0
   -0.7500   -3.2860    0.0000 C   0  0  0  0  0  0  0  0  0  0  0  0
   -1.0838   -4.7484    0.0000 O   0  0  0  0  0  0  0  0  0  0  0  0
    0.0158   -5.7686    0.0000 C   0  0  0  0  0  0  0  0  0  0  0  0
    1.4492   -5.3265    0.0000 C   0  0  0  0  0  0  0  0  0  0  0  0
    2.5487   -6.3467    0.0000 C   0  0  0  0  0  0  0  0  0  0  0  0
    3.9309   -6.9294    0.0000 C   0  0  0  0  0  0  0  0  0  0  0  0
    3.3626   -5.0867    0.0000 O   0  0  0  0  0  0  0  0  0  0  0  0
    4.8607   -5.1615    0.0000 C   0  0  0  0  0  0  0  0  0  0  0  0
    2.2150   -7.8091    0.0000 C   0  0  0  0  0  0  0  0  0  0  0  0
    3.3145   -8.8294    0.0000 O   0  0  0  0  0  0  0  0  0  0  0  0
    0.7816   -8.2513    0.0000 C   0  0  0  0  0  0  0  0  0  0  0  0
    0.4478   -9.7137    0.0000 C   0  0  0  0  0  0  0  0  0  0  0  0
   -0.3180   -7.2310    0.0000 O   0  0  0  0  0  0  0  0  0  0  0  0
   -2.1015   -2.6351    0.0000 C   0  0  0  0  0  0  0  0  0  0  0  0
   -3.0367   -3.8079    0.0000 C   0  0  0  0  0  0  0  0  0  0  0  0
   -3.0367   -1.4624    0.0000 C   0  0  0  0  0  0  0  0  0  0  0  0
   -4.3881   -2.1132    0.0000 O   0  0  0  0  0  0  0  0  0  0  0  0
   -5.6275   -1.2682    0.0000 C   0  0  0  0  0  0  0  0  0  0  0  0
   -5.5154    0.2276    0.0000 O   0  0  0  0  0  0  0  0  0  0  0  0
   -6.7548    1.0725    0.0000 C   0  0  0  0  0  0  0  0  0  0  0  0
   -6.6427    2.5684    0.0000 C   0  0  0  0  0  0  0  0  0  0  0  0
   -8.1062    0.4217    0.0000 C   0  0  0  0  0  0  0  0  0  0  0  0
   -8.2183   -1.0741    0.0000 C   0  0  0  0  0  0  0  0  0  0  0  0
   -9.5698   -1.7249    0.0000 N   0  0  0  0  0  0  0  0  0  0  0  0
  -10.8091   -0.8799    0.0000 C   0  0  0  0  0  0  0  0  0  0  0  0
   -9.6819   -3.2207    0.0000 C   0  0  0  0  0  0  0  0  0  0  0  0
   -6.9790   -1.9191    0.0000 C   0  0  0  0  0  0  0  0  0  0  0  0
   -7.0910   -3.4149    0.0000 O   0  0  0  0  0  0  0  0  0  0  0  0
   -3.3705    0.0000    0.0000 C   0  0  0  0  0  0  0  0  0  0  0  0
   -4.6098   -0.8450    0.0000 C   0  0  0  0  0  0  0  0  0  0  0  0
   -4.6098    0.8450    0.0000 O   0  0  0  0  0  0  0  0  0  0  0  0
   -3.0367    1.4624    0.0000 C   0  0  0  0  0  0  0  0  0  0  0  0
   -2.1015    2.6351    0.0000 C   0  0  0  0  0  0  0  0  0  0  0  0
   -3.0367    3.8079    0.0000 C   0  0  0  0  0  0  0  0  0  0  0  0
   -0.7500    3.2860    0.0000 C   0  0  0  0  0  0  0  0  0  0  0  0
   -1.0838    4.7484    0.0000 O   0  0  0  0  0  0  0  0  0  0  0  0
    0.7500    3.2860    0.0000 C   0  0  0  0  0  0  0  0  0  0  0  0
    1.0838    4.7484    0.0000 C   0  0  0  0  0  0  0  0  0  0  0  0
    2.1015    2.6351    0.0000 C   0  0  0  0  0  0  0  0  0  0  0  0
    3.0367    3.8079    0.0000 O   0  0  0  0  0  0  0  0  0  0  0  0
    3.0367    1.4624    0.0000 C   0  0  0  0  0  0  0  0  0  0  0  0
    3.7867    2.7614    0.0000 C   0  0  0  0  0  0  0  0  0  0  0  0
    4.5199    1.2388    0.0000 O   0  0  0  0  0  0  0  0  0  0  0  0
  1  2  1  0
  2  3  1  0
  3  4  1  0
  4  5  1  0
  5  6  2  0
  5  7  1  0
  7  8  1  0
  8  9  1  0
  9 10  1  0
 10 11  1  0
 11 12  1  0
 12 13  1  0
 12 14  1  0
 14 15  1  0
 12 16  1  0
 16 17  1  0
 16 18  1  0
 18 19  1  0
 18 20  1  0
  8 21  1  0
 21 22  1  0
 21 23  1  0
 23 24  1  0
 24 25  1  0
 25 26  1  0
 26 27  1  0
 27 28  1  0
 27 29  1  0
 29 30  1  0
 30 31  1  0
 31 32  1  0
 31 33  1  0
 30 34  1  0
 34 35  1  0
 23 36  1  0
 36 37  1  0
 36 38  1  0
 36 39  1  0
 39 40  1  0
 40 41  1  0
 40 42  1  0
 42 43  2  0
 42 44  1  0
 44 45  1  0
 44 46  1  0
 46 47  1  0
 46 48  1  0
 48 49  1  0
 48 50  1  0
 48  3  1  0
 20 10  1  0
 34 25  1  0
M  END
>  <ChEMBL_IDs>  (213) 
nan

>  <target_organism>  (213) 
nan

>  <target_molecule_pref_name>  (213) 
nan

>  <# Known Targets>  (213) 
nan

>  <Known Targets>  (213) 
nan

>  <smiles>  (213) 
CCC1OC(=O)CC(OC2CC(C)(OC)C(O)C(C)O2)C(C)C(OC2OC(C)CC(N(C)C)C2O)C(C)(O)CC(C)C(=O)C(C)C(O)C1(C)O

$$$$

     RDKit          2D

 50 52  0  0  0  0  0  0  0  0999 V2000
    5.6205   -1.2990    0.0000 C   0  0  0  0  0  0  0  0  0  0  0  0
    4.8705    0.0000    0.0000 C   0  0  0  0  0  0  0  0  0  0  0  0
    3.3705    0.0000    0.0000 C   0  0  0  0  0  0  0  0  0  0  0  0
    3.0367   -1.4624    0.0000 O   0  0  0  0  0  0  0  0  0  0  0  0
    2.1015   -2.6351    0.0000 C   0  0  0  0  0  0  0  0  0  0  0  0
    3.0367   -3.8079    0.0000 O   0  0  0  0  0  0  0  0  0  0  0  0
    0.7500   -3.2860    0.0000 C   0  0  0  0  0  0  0  0  0  0  0  0
   -0.7500   -3.2860    0.0000 C   0  0  0  0  0  0  0  0  0  0  0  0
   -1.0838   -4.7484    0.0000 O   0  0  0  0  0  0  0  0  0  0  0  0
    0.0158   -5.7686    0.0000 C   0  0  0  0  0  0  0  0  0  0  0  0
    1.4492   -5.3265    0.0000 C   0  0  0  0  0  0  0  0  0  0  0  0
    2.5487   -6.3467    0.0000 C   0  0  0  0  0  0  0  0  0  0  0  0
    3.9309   -6.9294    0.0000 C   0  0  0  0  0  0  0  0  0  0  0  0
    3.3626   -5.0867    0.0000 O   0  0  0  0  0  0  0  0  0  0  0  0
    4.8607   -5.1615    0.0000 C   0  0  0  0  0  0  0  0  0  0  0  0
    2.2150   -7.8091    0.0000 C   0  0  0  0  0  0  0  0  0  0  0  0
    3.3145   -8.8294    0.0000 O   0  0  0  0  0  0  0  0  0  0  0  0
    0.7816   -8.2513    0.0000 C   0  0  0  0  0  0  0  0  0  0  0  0
    0.4478   -9.7137    0.0000 C   0  0  0  0  0  0  0  0  0  0  0  0
   -0.3180   -7.2310    0.0000 O   0  0  0  0  0  0  0  0  0  0  0  0
   -2.1015   -2.6351    0.0000 C   0  0  0  0  0  0  0  0  0  0  0  0
   -3.0367   -3.8079    0.0000 C   0  0  0  0  0  0  0  0  0  0  0  0
   -3.0367   -1.4624    0.0000 C   0  0  0  0  0  0  0  0  0  0  0  0
   -4.3881   -2.1132    0.0000 O   0  0  0  0  0  0  0  0  0  0  0  0
   -5.6275   -1.2682    0.0000 C   0  0  0  0  0  0  0  0  0  0  0  0
   -5.5154    0.2276    0.0000 O   0  0  0  0  0  0  0  0  0  0  0  0
   -6.7548    1.0725    0.0000 C   0  0  0  0  0  0  0  0  0  0  0  0
   -6.6427    2.5684    0.0000 C   0  0  0  0  0  0  0  0  0  0  0  0
   -8.1062    0.4217    0.0000 C   0  0  0  0  0  0  0  0  0  0  0  0
   -8.2183   -1.0741    0.0000 C   0  0  0  0  0  0  0  0  0  0  0  0
   -9.5698   -1.7249    0.0000 N   0  0  0  0  0  0  0  0  0  0  0  0
  -10.8091   -0.8799    0.0000 C   0  0  0  0  0  0  0  0  0  0  0  0
   -9.6819   -3.2207    0.0000 C   0  0  0  0  0  0  0  0  0  0  0  0
   -6.9790   -1.9191    0.0000 C   0  0  0  0  0  0  0  0  0  0  0  0
   -7.0910   -3.4149    0.0000 O   0  0  0  0  0  0  0  0  0  0  0  0
   -3.3705    0.0000    0.0000 C   0  0  0  0  0  0  0  0  0  0  0  0
   -4.6098   -0.8450    0.0000 C   0  0  0  0  0  0  0  0  0  0  0  0
   -4.6098    0.8450    0.0000 O   0  0  0  0  0  0  0  0  0  0  0  0
   -3.0367    1.4624    0.0000 C   0  0  0  0  0  0  0  0  0  0  0  0
   -2.1015    2.6351    0.0000 C   0  0  0  0  0  0  0  0  0  0  0  0
   -3.0367    3.8079    0.0000 C   0  0  0  0  0  0  0  0  0  0  0  0
   -0.7500    3.2860    0.0000 C   0  0  0  0  0  0  0  0  0  0  0  0
   -1.0838    4.7484    0.0000 O   0  0  0  0  0  0  0  0  0  0  0  0
    0.7500    3.2860    0.0000 C   0  0  0  0  0  0  0  0  0  0  0  0
    1.0838    4.7484    0.0000 C   0  0  0  0  0  0  0  0  0  0  0  0
    2.1015    2.6351    0.0000 C   0  0  0  0  0  0  0  0  0  0  0  0
    3.0367    3.8079    0.0000 O   0  0  0  0  0  0  0  0  0  0  0  0
    3.0367    1.4624    0.0000 C   0  0  0  0  0  0  0  0  0  0  0  0
    3.7867    2.7614    0.0000 C   0  0  0  0  0  0  0  0  0  0  0  0
    4.5199    1.2388    0.0000 O   0  0  0  0  0  0  0  0  0  0  0  0
  1  2  1  0
  2  3  1  0
  3  4  1  0
  4  5  1  0
  5  6  2  0
  5  7  1  0
  7  8  1  0
  8  9  1  0
  9 10  1  0
 10 11  1  0
 11 12  1  0
 12 13  1  0
 12 14  1  0
 14 15  1  0
 12 16  1  0
 16 17  1  0
 16 18  1  0
 18 19  1  0
 18 20  1  0
  8 21  1  0
 21 22  1  0
 21 23  1  0
 23 24  1  0
 24 25  1  0
 25 26  1  0
 26 27  1  0
 27 28  1  0
 27 29  1  0
 29 30  1  0
 30 31  1  0
 31 32  1  0
 31 33  1  0
 30 34  1  0
 34 35  1  0
 23 36  1  0
 36 37  1  0
 36 38  1  0
 36 39  1  0
 39 40  1  0
 40 41  1  0
 40 42  1  0
 42 43  2  0
 42 44  1  0
 44 45  1  0
 44 46  1  0
 46 47  1  0
 46 48  1  0
 48 49  1  0
 48 50  1  0
 48  3  1  0
 20 10  1  0
 34 25  1  0
M  END
>  <ChEMBL_IDs>  (214) 
nan

>  <target_organism>  (214) 
nan

>  <target_molecule_pref_name>  (214) 
nan

>  <# Known Targets>  (214) 
nan

>  <Known Targets>  (214) 
nan

>  <smiles>  (214) 
CCC1OC(=O)CC(OC2CC(C)(OC)C(O)C(C)O2)C(C)C(OC2OC(C)CC(N(C)C)C2O)C(C)(O)CC(C)C(=O)C(C)C(O)C1(C)O

$$$$

     RDKit          2D

 50 52  0  0  0  0  0  0  0  0999 V2000
    5.6205   -1.2990    0.0000 C   0  0  0  0  0  0  0  0  0  0  0  0
    4.8705    0.0000    0.0000 C   0  0  0  0  0  0  0  0  0  0  0  0
    3.3705    0.0000    0.0000 C   0  0  0  0  0  0  0  0  0  0  0  0
    3.0367   -1.4624    0.0000 O   0  0  0  0  0  0  0  0  0  0  0  0
    2.1015   -2.6351    0.0000 C   0  0  0  0  0  0  0  0  0  0  0  0
    3.0367   -3.8079    0.0000 O   0  0  0  0  0  0  0  0  0  0  0  0
    0.7500   -3.2860    0.0000 C   0  0  0  0  0  0  0  0  0  0  0  0
    1.3600   -4.4903    0.0000 C   0  0  0  0  0  0  0  0  0  0  0  0
   -0.7500   -3.2860    0.0000 C   0  0  0  0  0  0  0  0  0  0  0  0
   -1.0838   -4.7484    0.0000 O   0  0  0  0  0  0  0  0  0  0  0  0
    0.0158   -5.7686    0.0000 C   0  0  0  0  0  0  0  0  0  0  0  0
   -0.3180   -7.2310    0.0000 C   0  0  0  0  0  0  0  0  0  0  0  0
    0.7816   -8.2513    0.0000 C   0  0  0  0  0  0  0  0  0  0  0  0
    0.4478   -9.7137    0.0000 O   0  0  0  0  0  0  0  0  0  0  0  0
    1.5474  -10.7339    0.0000 C   0  0  0  0  0  0  0  0  0  0  0  0
    2.2150   -7.8091    0.0000 C   0  0  0  0  0  0  0  0  0  0  0  0
    3.3145   -8.8294    0.0000 O   0  0  0  0  0  0  0  0  0  0  0  0
    2.5487   -6.3467    0.0000 C   0  0  0  0  0  0  0  0  0  0  0  0
    3.9821   -5.9046    0.0000 C   0  0  0  0  0  0  0  0  0  0  0  0
    1.4492   -5.3265    0.0000 O   0  0  0  0  0  0  0  0  0  0  0  0
   -2.1015   -2.6351    0.0000 C   0  0  0  0  0  0  0  0  0  0  0  0
   -3.0367   -3.8079    0.0000 C   0  0  0  0  0  0  0  0  0  0  0  0
   -3.0367   -1.4624    0.0000 C   0  0  0  0  0  0  0  0  0  0  0  0
   -4.3881   -2.1132    0.0000 O   0  0  0  0  0  0  0  0  0  0  0  0
   -5.6275   -1.2682    0.0000 C   0  0  0  0  0  0  0  0  0  0  0  0
   -5.5154    0.2276    0.0000 O   0  0  0  0  0  0  0  0  0  0  0  0
   -6.7548    1.0725    0.0000 C   0  0  0  0  0  0  0  0  0  0  0  0
   -6.6427    2.5684    0.0000 C   0  0  0  0  0  0  0  0  0  0  0  0
   -8.1062    0.4217    0.0000 C   0  0  0  0  0  0  0  0  0  0  0  0
   -8.2183   -1.0741    0.0000 C   0  0  0  0  0  0  0  0  0  0  0  0
   -9.5698   -1.7249    0.0000 N   0  0  0  0  0  0  0  0  0  0  0  0
  -10.8091   -0.8799    0.0000 C   0  0  0  0  0  0  0  0  0  0  0  0
   -9.6819   -3.2207    0.0000 C   0  0  0  0  0  0  0  0  0  0  0  0
   -6.9790   -1.9191    0.0000 C   0  0  0  0  0  0  0  0  0  0  0  0
   -7.0910   -3.4149    0.0000 O   0  0  0  0  0  0  0  0  0  0  0  0
   -3.3705    0.0000    0.0000 C   0  0  0  0  0  0  0  0  0  0  0  0
   -4.6098   -0.8450    0.0000 C   0  0  0  0  0  0  0  0  0  0  0  0
   -4.6098    0.8450    0.0000 O   0  0  0  0  0  0  0  0  0  0  0  0
   -3.0367    1.4624    0.0000 C   0  0  0  0  0  0  0  0  0  0  0  0
   -2.1015    2.6351    0.0000 C   0  0  0  0  0  0  0  0  0  0  0  0
   -3.0367    3.8079    0.0000 C   0  0  0  0  0  0  0  0  0  0  0  0
   -0.7500    3.2860    0.0000 C   0  0  0  0  0  0  0  0  0  0  0  0
   -1.0838    4.7484    0.0000 O   0  0  0  0  0  0  0  0  0  0  0  0
    0.7500    3.2860    0.0000 C   0  0  0  0  0  0  0  0  0  0  0  0
    1.0838    4.7484    0.0000 C   0  0  0  0  0  0  0  0  0  0  0  0
    2.1015    2.6351    0.0000 C   0  0  0  0  0  0  0  0  0  0  0  0
    3.0367    3.8079    0.0000 O   0  0  0  0  0  0  0  0  0  0  0  0
    3.0367    1.4624    0.0000 C   0  0  0  0  0  0  0  0  0  0  0  0
    3.7867    2.7614    0.0000 C   0  0  0  0  0  0  0  0  0  0  0  0
    4.5199    1.2388    0.0000 O   0  0  0  0  0  0  0  0  0  0  0  0
  1  2  1  0
  2  3  1  0
  3  4  1  0
  4  5  1  0
  5  6  2  0
  5  7  1  0
  7  8  1  0
  7  9  1  0
  9 10  1  0
 10 11  1  0
 11 12  1  0
 12 13  1  0
 13 14  1  0
 14 15  1  0
 13 16  1  0
 16 17  1  0
 16 18  1  0
 18 19  1  0
 18 20  1  0
  9 21  1  0
 21 22  1  0
 21 23  1  0
 23 24  1  0
 24 25  1  0
 25 26  1  0
 26 27  1  0
 27 28  1  0
 27 29  1  0
 29 30  1  0
 30 31  1  0
 31 32  1  0
 31 33  1  0
 30 34  1  0
 34 35  1  0
 23 36  1  0
 36 37  1  0
 36 38  1  0
 36 39  1  0
 39 40  1  0
 40 41  1  0
 40 42  1  0
 42 43  2  0
 42 44  1  0
 44 45  1  0
 44 46  1  0
 46 47  1  0
 46 48  1  0
 48 49  1  0
 48 50  1  0
 48  3  1  0
 20 11  1  0
 34 25  1  0
M  END
>  <ChEMBL_IDs>  (215) 
nan

>  <target_organism>  (215) 
nan

>  <target_molecule_pref_name>  (215) 
nan

>  <# Known Targets>  (215) 
nan

>  <Known Targets>  (215) 
nan

>  <smiles>  (215) 
CCC1OC(=O)C(C)C(OC2CC(OC)C(O)C(C)O2)C(C)C(OC2OC(C)CC(N(C)C)C2O)C(C)(O)CC(C)C(=O)C(C)C(O)C1(C)O

$$$$

     RDKit          2D

 50 52  0  0  0  0  0  0  0  0999 V2000
    5.6205   -1.2990    0.0000 C   0  0  0  0  0  0  0  0  0  0  0  0
    4.8705    0.0000    0.0000 C   0  0  0  0  0  0  0  0  0  0  0  0
    3.3705    0.0000    0.0000 C   0  0  0  0  0  0  0  0  0  0  0  0
    3.0367   -1.4624    0.0000 O   0  0  0  0  0  0  0  0  0  0  0  0
    2.1015   -2.6351    0.0000 C   0  0  0  0  0  0  0  0  0  0  0  0
    3.0367   -3.8079    0.0000 O   0  0  0  0  0  0  0  0  0  0  0  0
    0.7500   -3.2860    0.0000 C   0  0  0  0  0  0  0  0  0  0  0  0
    1.3600   -4.4903    0.0000 C   0  0  0  0  0  0  0  0  0  0  0  0
   -0.7500   -3.2860    0.0000 C   0  0  0  0  0  0  0  0  0  0  0  0
   -1.0838   -4.7484    0.0000 O   0  0  0  0  0  0  0  0  0  0  0  0
    0.0158   -5.7686    0.0000 C   0  0  0  0  0  0  0  0  0  0  0  0
   -0.3180   -7.2310    0.0000 C   0  0  0  0  0  0  0  0  0  0  0  0
    0.7816   -8.2513    0.0000 C   0  0  0  0  0  0  0  0  0  0  0  0
    0.4478   -9.7137    0.0000 O   0  0  0  0  0  0  0  0  0  0  0  0
    1.5474  -10.7339    0.0000 C   0  0  0  0  0  0  0  0  0  0  0  0
    2.2150   -7.8091    0.0000 C   0  0  0  0  0  0  0  0  0  0  0  0
    3.3145   -8.8294    0.0000 O   0  0  0  0  0  0  0  0  0  0  0  0
    2.5487   -6.3467    0.0000 C   0  0  0  0  0  0  0  0  0  0  0  0
    3.9821   -5.9046    0.0000 C   0  0  0  0  0  0  0  0  0  0  0  0
    1.4492   -5.3265    0.0000 O   0  0  0  0  0  0  0  0  0  0  0  0
   -2.1015   -2.6351    0.0000 C   0  0  0  0  0  0  0  0  0  0  0  0
   -3.0367   -3.8079    0.0000 C   0  0  0  0  0  0  0  0  0  0  0  0
   -3.0367   -1.4624    0.0000 C   0  0  0  0  0  0  0  0  0  0  0  0
   -4.3881   -2.1132    0.0000 O   0  0  0  0  0  0  0  0  0  0  0  0
   -5.6275   -1.2682    0.0000 C   0  0  0  0  0  0  0  0  0  0  0  0
   -5.5154    0.2276    0.0000 O   0  0  0  0  0  0  0  0  0  0  0  0
   -6.7548    1.0725    0.0000 C   0  0  0  0  0  0  0  0  0  0  0  0
   -6.6427    2.5684    0.0000 C   0  0  0  0  0  0  0  0  0  0  0  0
   -8.1062    0.4217    0.0000 C   0  0  0  0  0  0  0  0  0  0  0  0
   -8.2183   -1.0741    0.0000 C   0  0  0  0  0  0  0  0  0  0  0  0
   -9.5698   -1.7249    0.0000 N   0  0  0  0  0  0  0  0  0  0  0  0
  -10.8091   -0.8799    0.0000 C   0  0  0  0  0  0  0  0  0  0  0  0
   -9.6819   -3.2207    0.0000 C   0  0  0  0  0  0  0  0  0  0  0  0
   -6.9790   -1.9191    0.0000 C   0  0  0  0  0  0  0  0  0  0  0  0
   -7.0910   -3.4149    0.0000 O   0  0  0  0  0  0  0  0  0  0  0  0
   -3.3705    0.0000    0.0000 C   0  0  0  0  0  0  0  0  0  0  0  0
   -4.6098   -0.8450    0.0000 C   0  0  0  0  0  0  0  0  0  0  0  0
   -4.6098    0.8450    0.0000 O   0  0  0  0  0  0  0  0  0  0  0  0
   -3.0367    1.4624    0.0000 C   0  0  0  0  0  0  0  0  0  0  0  0
   -2.1015    2.6351    0.0000 C   0  0  0  0  0  0  0  0  0  0  0  0
   -3.0367    3.8079    0.0000 C   0  0  0  0  0  0  0  0  0  0  0  0
   -0.7500    3.2860    0.0000 C   0  0  0  0  0  0  0  0  0  0  0  0
   -1.0838    4.7484    0.0000 O   0  0  0  0  0  0  0  0  0  0  0  0
    0.7500    3.2860    0.0000 C   0  0  0  0  0  0  0  0  0  0  0  0
    1.0838    4.7484    0.0000 C   0  0  0  0  0  0  0  0  0  0  0  0
    2.1015    2.6351    0.0000 C   0  0  0  0  0  0  0  0  0  0  0  0
    3.0367    3.8079    0.0000 O   0  0  0  0  0  0  0  0  0  0  0  0
    3.0367    1.4624    0.0000 C   0  0  0  0  0  0  0  0  0  0  0  0
    3.7867    2.7614    0.0000 C   0  0  0  0  0  0  0  0  0  0  0  0
    4.5199    1.2388    0.0000 O   0  0  0  0  0  0  0  0  0  0  0  0
  1  2  1  0
  2  3  1  0
  3  4  1  0
  4  5  1  0
  5  6  2  0
  5  7  1  0
  7  8  1  0
  7  9  1  0
  9 10  1  0
 10 11  1  0
 11 12  1  0
 12 13  1  0
 13 14  1  0
 14 15  1  0
 13 16  1  0
 16 17  1  0
 16 18  1  0
 18 19  1  0
 18 20  1  0
  9 21  1  0
 21 22  1  0
 21 23  1  0
 23 24  1  0
 24 25  1  0
 25 26  1  0
 26 27  1  0
 27 28  1  0
 27 29  1  0
 29 30  1  0
 30 31  1  0
 31 32  1  0
 31 33  1  0
 30 34  1  0
 34 35  1  0
 23 36  1  0
 36 37  1  0
 36 38  1  0
 36 39  1  0
 39 40  1  0
 40 41  1  0
 40 42  1  0
 42 43  2  0
 42 44  1  0
 44 45  1  0
 44 46  1  0
 46 47  1  0
 46 48  1  0
 48 49  1  0
 48 50  1  0
 48  3  1  0
 20 11  1  0
 34 25  1  0
M  END
>  <ChEMBL_IDs>  (216) 
nan

>  <target_organism>  (216) 
nan

>  <target_molecule_pref_name>  (216) 
nan

>  <# Known Targets>  (216) 
nan

>  <Known Targets>  (216) 
nan

>  <smiles>  (216) 
CCC1OC(=O)C(C)C(OC2CC(OC)C(O)C(C)O2)C(C)C(OC2OC(C)CC(N(C)C)C2O)C(C)(O)CC(C)C(=O)C(C)C(O)C1(C)O

$$$$

     RDKit          2D

 49 51  0  0  0  0  0  0  0  0999 V2000
    8.8706    6.2995    0.0000 C   0  0  0  0  0  0  0  0  0  0  0  0
    7.7915    5.2575    0.0000 O   0  0  0  0  0  0  0  0  0  0  0  0
    6.3497    5.6710    0.0000 C   0  0  0  0  0  0  0  0  0  0  0  0
    7.0072    7.0192    0.0000 C   0  0  0  0  0  0  0  0  0  0  0  0
    6.1929    4.1792    0.0000 C   0  0  0  0  0  0  0  0  0  0  0  0
    4.8225    3.5691    0.0000 C   0  0  0  0  0  0  0  0  0  0  0  0
    4.6658    2.0773    0.0000 O   0  0  0  0  0  0  0  0  0  0  0  0
    3.2954    1.4672    0.0000 C   0  0  0  0  0  0  0  0  0  0  0  0
    3.6073    0.0000    0.0000 C   0  0  0  0  0  0  0  0  0  0  0  0
    5.1073    0.0000    0.0000 C   0  0  0  0  0  0  0  0  0  0  0  0
    3.2954   -1.4672    0.0000 C   0  0  0  0  0  0  0  0  0  0  0  0
    4.6658   -2.0773    0.0000 O   0  0  0  0  0  0  0  0  0  0  0  0
    4.8225   -3.5691    0.0000 C   0  0  0  0  0  0  0  0  0  0  0  0
    3.6090   -4.4508    0.0000 O   0  0  0  0  0  0  0  0  0  0  0  0
    3.7658   -5.9426    0.0000 C   0  0  0  0  0  0  0  0  0  0  0  0
    2.5523   -6.8242    0.0000 C   0  0  0  0  0  0  0  0  0  0  0  0
    5.1361   -6.5527    0.0000 C   0  0  0  0  0  0  0  0  0  0  0  0
    6.3497   -5.6710    0.0000 C   0  0  0  0  0  0  0  0  0  0  0  0
    7.7200   -6.2811    0.0000 N   0  0  0  0  0  0  0  0  0  0  0  0
    7.8768   -7.7729    0.0000 C   0  0  0  0  0  0  0  0  0  0  0  0
    8.9335   -5.3994    0.0000 C   0  0  0  0  0  0  0  0  0  0  0  0
    6.1929   -4.1792    0.0000 C   0  0  0  0  0  0  0  0  0  0  0  0
    7.4064   -3.2975    0.0000 O   0  0  0  0  0  0  0  0  0  0  0  0
    2.4138   -2.6807    0.0000 C   0  0  0  0  0  0  0  0  0  0  0  0
    3.8692   -3.0436    0.0000 C   0  0  0  0  0  0  0  0  0  0  0  0
    2.6225   -4.1661    0.0000 O   0  0  0  0  0  0  0  0  0  0  0  0
    1.4405   -5.0896    0.0000 C   0  0  0  0  0  0  0  0  0  0  0  0
    1.1147   -3.4307    0.0000 C   0  0  0  0  0  0  0  0  0  0  0  0
   -0.3771   -3.5875    0.0000 C   0  0  0  0  0  0  0  0  0  0  0  0
   -0.5339   -5.0793    0.0000 C   0  0  0  0  0  0  0  0  0  0  0  0
   -1.8037   -3.1240    0.0000 C   0  0  0  0  0  0  0  0  0  0  0  0
   -2.5537   -4.4231    0.0000 O   0  0  0  0  0  0  0  0  0  0  0  0
   -2.9184   -2.1203    0.0000 C   0  0  0  0  0  0  0  0  0  0  0  0
   -4.1319   -3.0020    0.0000 C   0  0  0  0  0  0  0  0  0  0  0  0
   -3.5285   -0.7500    0.0000 C   0  0  0  0  0  0  0  0  0  0  0  0
   -3.5285    0.7500    0.0000 N   0  0  0  0  0  0  0  0  0  0  0  0
   -4.9957    1.0619    0.0000 C   0  0  0  0  0  0  0  0  0  0  0  0
   -2.9184    2.1203    0.0000 C   0  0  0  0  0  0  0  0  0  0  0  0
   -1.8037    3.1240    0.0000 C   0  0  0  0  0  0  0  0  0  0  0  0
   -0.3771    3.5875    0.0000 O   0  0  0  0  0  0  0  0  0  0  0  0
    1.1147    3.4307    0.0000 C   0  0  0  0  0  0  0  0  0  0  0  0
    1.5782    4.8573    0.0000 O   0  0  0  0  0  0  0  0  0  0  0  0
    2.4138    2.6807    0.0000 C   0  0  0  0  0  0  0  0  0  0  0  0
    3.0475    3.8728    0.0000 C   0  0  0  0  0  0  0  0  0  0  0  0
    3.6090    4.4508    0.0000 O   0  0  0  0  0  0  0  0  0  0  0  0
    3.7658    5.9426    0.0000 C   0  0  0  0  0  0  0  0  0  0  0  0
    2.5523    6.8242    0.0000 C   0  0  0  0  0  0  0  0  0  0  0  0
    5.1361    6.5527    0.0000 C   0  0  0  0  0  0  0  0  0  0  0  0
    5.2929    8.0445    0.0000 O   0  0  0  0  0  0  0  0  0  0  0  0
  1  2  1  0
  2  3  1  0
  3  4  1  1
  3  5  1  0
  5  6  1  0
  6  7  1  6
  8  7  1  1
  8  9  1  0
  9 10  1  6
  9 11  1  0
 11 12  1  1
 13 12  1  1
 13 14  1  0
 14 15  1  0
 15 16  1  1
 15 17  1  0
 17 18  1  0
 18 19  1  1
 19 20  1  0
 19 21  1  0
 18 22  1  0
 22 23  1  6
 11 24  1  0
 24 25  1  1
 24 26  1  0
 26 27  1  0
 24 28  1  0
 28 29  1  0
 29 30  1  1
 29 31  1  0
 31 32  2  0
 31 33  1  0
 33 34  1  6
 33 35  1  0
 35 36  1  0
 36 37  1  0
 36 38  1  0
 38 39  1  0
 39 40  1  0
 40 41  1  0
 41 42  2  0
 41 43  1  0
 43 44  1  6
  6 45  1  0
 45 46  1  0
 46 47  1  1
 46 48  1  0
 48 49  1  6
 48  3  1  0
 43  8  1  0
 22 13  1  0
M  END
>  <ChEMBL_IDs>  (217) 
CHEMBL2146791

>  <target_organism>  (217) 
Plasmodium falciparum

>  <target_molecule_pref_name>  (217) 
nan

>  <# Known Targets>  (217) 
nan

>  <Known Targets>  (217) 
nan

>  <smiles>  (217) 
CO[C@]1(C)C[C@H](O[C@H]2[C@H](C)[C@@H](O[C@@H]3O[C@H](C)C[C@H](N(C)C)[C@H]3O)[C@](C)(OC)C[C@@H](C)C(=O)[C@H](C)CN(C)CCOC(=O)[C@@H]2C)O[C@@H](C)[C@@H]1O

$$$$

     RDKit          2D

 51 53  0  0  0  0  0  0  0  0999 V2000
    5.8573   -1.2990    0.0000 C   0  0  0  0  0  0  0  0  0  0  0  0
    5.1073    0.0000    0.0000 C   0  0  0  0  0  0  0  0  0  0  0  0
    3.6073    0.0000    0.0000 C   0  0  0  0  0  0  0  0  0  0  0  0
    3.2954    1.4672    0.0000 O   0  0  0  0  0  0  0  0  0  0  0  0
    2.4138    2.6807    0.0000 C   0  0  0  0  0  0  0  0  0  0  0  0
    3.4175    3.7955    0.0000 O   0  0  0  0  0  0  0  0  0  0  0  0
    1.1147    3.4307    0.0000 C   0  0  0  0  0  0  0  0  0  0  0  0
    1.8302    4.5756    0.0000 C   0  0  0  0  0  0  0  0  0  0  0  0
   -0.3771    3.5875    0.0000 C   0  0  0  0  0  0  0  0  0  0  0  0
   -0.5339    5.0793    0.0000 O   0  0  0  0  0  0  0  0  0  0  0  0
    0.6797    5.9610    0.0000 C   0  0  0  0  0  0  0  0  0  0  0  0
    0.5229    7.4528    0.0000 C   0  0  0  0  0  0  0  0  0  0  0  0
    1.7364    8.3345    0.0000 C   0  0  0  0  0  0  0  0  0  0  0  0
    2.5752    9.5780    0.0000 C   0  0  0  0  0  0  0  0  0  0  0  0
    0.6574    9.3764    0.0000 O   0  0  0  0  0  0  0  0  0  0  0  0
    1.0203   10.8319    0.0000 C   0  0  0  0  0  0  0  0  0  0  0  0
    3.1067    7.7244    0.0000 C   0  0  0  0  0  0  0  0  0  0  0  0
    4.3202    8.6060    0.0000 O   0  0  0  0  0  0  0  0  0  0  0  0
    3.2635    6.2326    0.0000 C   0  0  0  0  0  0  0  0  0  0  0  0
    4.6338    5.6225    0.0000 C   0  0  0  0  0  0  0  0  0  0  0  0
    2.0500    5.3509    0.0000 O   0  0  0  0  0  0  0  0  0  0  0  0
   -1.8037    3.1240    0.0000 C   0  0  0  0  0  0  0  0  0  0  0  0
   -2.5537    4.4231    0.0000 C   0  0  0  0  0  0  0  0  0  0  0  0
   -2.9184    2.1203    0.0000 C   0  0  0  0  0  0  0  0  0  0  0  0
   -4.1319    3.0020    0.0000 O   0  0  0  0  0  0  0  0  0  0  0  0
   -5.5022    2.3919    0.0000 C   0  0  0  0  0  0  0  0  0  0  0  0
   -6.7157    3.2736    0.0000 O   0  0  0  0  0  0  0  0  0  0  0  0
   -8.0861    2.6635    0.0000 C   0  0  0  0  0  0  0  0  0  0  0  0
   -9.2996    3.5451    0.0000 C   0  0  0  0  0  0  0  0  0  0  0  0
   -8.2428    1.1717    0.0000 C   0  0  0  0  0  0  0  0  0  0  0  0
   -7.0293    0.2900    0.0000 C   0  0  0  0  0  0  0  0  0  0  0  0
   -7.1861   -1.2018    0.0000 N   0  0  0  0  0  0  0  0  0  0  0  0
   -5.6590    0.9001    0.0000 C   0  0  0  0  0  0  0  0  0  0  0  0
   -5.0760    0.3564    0.0000 O   0  0  0  0  0  0  0  0  0  0  0  0
   -3.5285    0.7500    0.0000 C   0  0  0  0  0  0  0  0  0  0  0  0
   -4.2257    0.3635    0.0000 C   0  0  0  0  0  0  0  0  0  0  0  0
   -4.5705    1.8290    0.0000 O   0  0  0  0  0  0  0  0  0  0  0  0
   -5.8948    1.1247    0.0000 C   0  0  0  0  0  0  0  0  0  0  0  0
   -3.5285   -0.7500    0.0000 C   0  0  0  0  0  0  0  0  0  0  0  0
   -2.9184   -2.1203    0.0000 C   0  0  0  0  0  0  0  0  0  0  0  0
   -4.1319   -3.0020    0.0000 C   0  0  0  0  0  0  0  0  0  0  0  0
   -1.8037   -3.1240    0.0000 C   0  0  0  0  0  0  0  0  0  0  0  0
   -2.5537   -4.4231    0.0000 O   0  0  0  0  0  0  0  0  0  0  0  0
   -0.3771   -3.5875    0.0000 N   0  0  0  0  0  0  0  0  0  0  0  0
    1.1147   -3.4307    0.0000 C   0  0  0  0  0  0  0  0  0  0  0  0
    1.5782   -4.8573    0.0000 C   0  0  0  0  0  0  0  0  0  0  0  0
    2.4138   -2.6807    0.0000 C   0  0  0  0  0  0  0  0  0  0  0  0
    3.4175   -3.7955    0.0000 O   0  0  0  0  0  0  0  0  0  0  0  0
    3.2954   -1.4672    0.0000 C   0  0  0  0  0  0  0  0  0  0  0  0
    4.7726   -1.2067    0.0000 C   0  0  0  0  0  0  0  0  0  0  0  0
    4.0903   -2.7393    0.0000 O   0  0  0  0  0  0  0  0  0  0  0  0
  1  2  1  0
  3  2  1  6
  3  4  1  0
  4  5  1  0
  5  6  2  0
  5  7  1  0
  7  8  1  1
  7  9  1  0
  9 10  1  6
 11 10  1  1
 11 12  1  0
 12 13  1  0
 13 14  1  6
 13 15  1  0
 15 16  1  0
 13 17  1  0
 17 18  1  1
 17 19  1  0
 19 20  1  6
 19 21  1  0
  9 22  1  0
 22 23  1  1
 22 24  1  0
 24 25  1  6
 26 25  1  1
 26 27  1  0
 27 28  1  0
 28 29  1  1
 28 30  1  0
 30 31  1  0
 31 32  1  1
 31 33  1  0
 33 34  1  6
 24 35  1  0
 35 36  1  6
 35 37  1  0
 37 38  1  0
 35 39  1  0
 39 40  1  0
 40 41  1  6
 40 42  1  0
 42 43  2  0
 42 44  1  0
 44 45  1  0
 45 46  1  1
 45 47  1  0
 47 48  1  6
 47 49  1  0
 49 50  1  6
 49 51  1  0
 49  3  1  0
 21 11  1  0
 33 26  1  0
M  END
>  <ChEMBL_IDs>  (218) 
CHEMBL2022717

>  <target_organism>  (218) 
Staphylococcus aureus

>  <target_molecule_pref_name>  (218) 
nan

>  <# Known Targets>  (218) 
nan

>  <Known Targets>  (218) 
nan

>  <smiles>  (218) 
CC[C@H]1OC(=O)[C@H](C)[C@@H](O[C@H]2C[C@@](C)(OC)[C@@H](O)[C@H](C)O2)[C@H](C)[C@@H](O[C@@H]2O[C@H](C)C[C@H](N)[C@H]2O)[C@](C)(OC)C[C@@H](C)C(=O)N[C@H](C)[C@@H](O)[C@]1(C)O

$$$$

     RDKit          2D

 49 51  0  0  0  0  0  0  0  0999 V2000
    8.8706    6.2995    0.0000 C   0  0  0  0  0  0  0  0  0  0  0  0
    7.7915    5.2575    0.0000 O   0  0  0  0  0  0  0  0  0  0  0  0
    6.3497    5.6710    0.0000 C   0  0  0  0  0  0  0  0  0  0  0  0
    7.0072    7.0192    0.0000 C   0  0  0  0  0  0  0  0  0  0  0  0
    6.1929    4.1792    0.0000 C   0  0  0  0  0  0  0  0  0  0  0  0
    4.8225    3.5691    0.0000 C   0  0  0  0  0  0  0  0  0  0  0  0
    4.6658    2.0773    0.0000 O   0  0  0  0  0  0  0  0  0  0  0  0
    3.2954    1.4672    0.0000 C   0  0  0  0  0  0  0  0  0  0  0  0
    3.6073    0.0000    0.0000 C   0  0  0  0  0  0  0  0  0  0  0  0
    5.1073    0.0000    0.0000 C   0  0  0  0  0  0  0  0  0  0  0  0
    3.2954   -1.4672    0.0000 C   0  0  0  0  0  0  0  0  0  0  0  0
    4.6658   -2.0773    0.0000 O   0  0  0  0  0  0  0  0  0  0  0  0
    4.8225   -3.5691    0.0000 C   0  0  0  0  0  0  0  0  0  0  0  0
    3.6090   -4.4508    0.0000 O   0  0  0  0  0  0  0  0  0  0  0  0
    3.7658   -5.9426    0.0000 C   0  0  0  0  0  0  0  0  0  0  0  0
    2.5523   -6.8242    0.0000 C   0  0  0  0  0  0  0  0  0  0  0  0
    5.1361   -6.5527    0.0000 C   0  0  0  0  0  0  0  0  0  0  0  0
    6.3497   -5.6710    0.0000 C   0  0  0  0  0  0  0  0  0  0  0  0
    7.7200   -6.2811    0.0000 N   0  0  0  0  0  0  0  0  0  0  0  0
    7.8768   -7.7729    0.0000 C   0  0  0  0  0  0  0  0  0  0  0  0
    8.9335   -5.3994    0.0000 C   0  0  0  0  0  0  0  0  0  0  0  0
    6.1929   -4.1792    0.0000 C   0  0  0  0  0  0  0  0  0  0  0  0
    7.4064   -3.2975    0.0000 O   0  0  0  0  0  0  0  0  0  0  0  0
    2.4138   -2.6807    0.0000 C   0  0  0  0  0  0  0  0  0  0  0  0
    3.8692   -3.0436    0.0000 C   0  0  0  0  0  0  0  0  0  0  0  0
    2.6225   -4.1661    0.0000 O   0  0  0  0  0  0  0  0  0  0  0  0
    1.4405   -5.0896    0.0000 C   0  0  0  0  0  0  0  0  0  0  0  0
    1.1147   -3.4307    0.0000 C   0  0  0  0  0  0  0  0  0  0  0  0
   -0.3771   -3.5875    0.0000 C   0  0  0  0  0  0  0  0  0  0  0  0
   -0.5339   -5.0793    0.0000 C   0  0  0  0  0  0  0  0  0  0  0  0
   -1.8037   -3.1240    0.0000 C   0  0  0  0  0  0  0  0  0  0  0  0
   -2.5537   -4.4231    0.0000 O   0  0  0  0  0  0  0  0  0  0  0  0
   -2.9184   -2.1203    0.0000 C   0  0  0  0  0  0  0  0  0  0  0  0
   -4.1319   -3.0020    0.0000 C   0  0  0  0  0  0  0  0  0  0  0  0
   -3.5285   -0.7500    0.0000 C   0  0  0  0  0  0  0  0  0  0  0  0
   -3.5285    0.7500    0.0000 N   0  0  0  0  0  0  0  0  0  0  0  0
   -4.9957    1.0619    0.0000 C   0  0  0  0  0  0  0  0  0  0  0  0
   -2.9184    2.1203    0.0000 C   0  0  0  0  0  0  0  0  0  0  0  0
   -1.8037    3.1240    0.0000 C   0  0  0  0  0  0  0  0  0  0  0  0
   -0.3771    3.5875    0.0000 O   0  0  0  0  0  0  0  0  0  0  0  0
    1.1147    3.4307    0.0000 C   0  0  0  0  0  0  0  0  0  0  0  0
    1.5782    4.8573    0.0000 O   0  0  0  0  0  0  0  0  0  0  0  0
    2.4138    2.6807    0.0000 C   0  0  0  0  0  0  0  0  0  0  0  0
    3.0475    3.8728    0.0000 C   0  0  0  0  0  0  0  0  0  0  0  0
    3.6090    4.4508    0.0000 O   0  0  0  0  0  0  0  0  0  0  0  0
    3.7658    5.9426    0.0000 C   0  0  0  0  0  0  0  0  0  0  0  0
    2.5523    6.8242    0.0000 C   0  0  0  0  0  0  0  0  0  0  0  0
    5.1361    6.5527    0.0000 C   0  0  0  0  0  0  0  0  0  0  0  0
    5.2929    8.0445    0.0000 O   0  0  0  0  0  0  0  0  0  0  0  0
  1  2  1  0
  2  3  1  0
  3  4  1  1
  3  5  1  0
  5  6  1  0
  6  7  1  6
  8  7  1  1
  8  9  1  0
  9 10  1  6
  9 11  1  0
 11 12  1  1
 13 12  1  1
 13 14  1  0
 14 15  1  0
 15 16  1  1
 15 17  1  0
 17 18  1  0
 18 19  1  1
 19 20  1  0
 19 21  1  0
 18 22  1  0
 22 23  1  6
 11 24  1  0
 24 25  1  1
 24 26  1  0
 26 27  1  0
 24 28  1  0
 28 29  1  0
 29 30  1  1
 29 31  1  0
 31 32  1  6
 31 33  1  0
 33 34  1  6
 33 35  1  0
 35 36  1  0
 36 37  1  0
 36 38  1  0
 38 39  1  0
 39 40  1  0
 40 41  1  0
 41 42  2  0
 41 43  1  0
 43 44  1  6
  6 45  1  0
 45 46  1  0
 46 47  1  1
 46 48  1  0
 48 49  1  6
 48  3  1  0
 43  8  1  0
 22 13  1  0
M  END
>  <ChEMBL_IDs>  (219) 
CHEMBL2146913

>  <target_organism>  (219) 
Plasmodium falciparum

>  <target_molecule_pref_name>  (219) 
nan

>  <# Known Targets>  (219) 
nan

>  <Known Targets>  (219) 
nan

>  <smiles>  (219) 
CO[C@]1(C)C[C@H](O[C@H]2[C@H](C)[C@@H](O[C@@H]3O[C@H](C)C[C@H](N(C)C)[C@H]3O)[C@](C)(OC)C[C@@H](C)[C@H](O)[C@H](C)CN(C)CCOC(=O)[C@@H]2C)O[C@@H](C)[C@@H]1O

$$$$

     RDKit          2D

 50 52  0  0  0  0  0  0  0  0999 V2000
    5.8573   -1.2990    0.0000 C   0  0  0  0  0  0  0  0  0  0  0  0
    5.1073    0.0000    0.0000 C   0  0  0  0  0  0  0  0  0  0  0  0
    3.6073    0.0000    0.0000 C   0  0  0  0  0  0  0  0  0  0  0  0
    3.2954    1.4672    0.0000 O   0  0  0  0  0  0  0  0  0  0  0  0
    2.4138    2.6807    0.0000 C   0  0  0  0  0  0  0  0  0  0  0  0
    3.4175    3.7955    0.0000 O   0  0  0  0  0  0  0  0  0  0  0  0
    1.1147    3.4307    0.0000 C   0  0  0  0  0  0  0  0  0  0  0  0
    1.8302    4.5756    0.0000 C   0  0  0  0  0  0  0  0  0  0  0  0
   -0.3771    3.5875    0.0000 C   0  0  0  0  0  0  0  0  0  0  0  0
   -0.5339    5.0793    0.0000 O   0  0  0  0  0  0  0  0  0  0  0  0
    0.6797    5.9610    0.0000 C   0  0  0  0  0  0  0  0  0  0  0  0
    0.5229    7.4528    0.0000 C   0  0  0  0  0  0  0  0  0  0  0  0
    1.7364    8.3345    0.0000 C   0  0  0  0  0  0  0  0  0  0  0  0
    2.5752    9.5780    0.0000 C   0  0  0  0  0  0  0  0  0  0  0  0
    0.6574    9.3764    0.0000 O   0  0  0  0  0  0  0  0  0  0  0  0
    1.0203   10.8319    0.0000 C   0  0  0  0  0  0  0  0  0  0  0  0
    3.1067    7.7244    0.0000 C   0  0  0  0  0  0  0  0  0  0  0  0
    4.3202    8.6060    0.0000 O   0  0  0  0  0  0  0  0  0  0  0  0
    3.2635    6.2326    0.0000 C   0  0  0  0  0  0  0  0  0  0  0  0
    4.6338    5.6225    0.0000 C   0  0  0  0  0  0  0  0  0  0  0  0
    2.0500    5.3509    0.0000 O   0  0  0  0  0  0  0  0  0  0  0  0
   -1.8037    3.1240    0.0000 C   0  0  0  0  0  0  0  0  0  0  0  0
   -2.5537    4.4231    0.0000 C   0  0  0  0  0  0  0  0  0  0  0  0
   -2.9184    2.1203    0.0000 C   0  0  0  0  0  0  0  0  0  0  0  0
   -4.1319    3.0020    0.0000 O   0  0  0  0  0  0  0  0  0  0  0  0
   -5.5022    2.3919    0.0000 C   0  0  0  0  0  0  0  0  0  0  0  0
   -6.7157    3.2736    0.0000 O   0  0  0  0  0  0  0  0  0  0  0  0
   -8.0861    2.6635    0.0000 C   0  0  0  0  0  0  0  0  0  0  0  0
   -9.2996    3.5451    0.0000 C   0  0  0  0  0  0  0  0  0  0  0  0
   -8.2428    1.1717    0.0000 C   0  0  0  0  0  0  0  0  0  0  0  0
   -7.0293    0.2900    0.0000 C   0  0  0  0  0  0  0  0  0  0  0  0
   -7.1861   -1.2018    0.0000 N   0  0  0  0  0  0  0  0  0  0  0  0
   -5.6590    0.9001    0.0000 C   0  0  0  0  0  0  0  0  0  0  0  0
   -5.0760    0.3564    0.0000 O   0  0  0  0  0  0  0  0  0  0  0  0
   -3.5285    0.7500    0.0000 C   0  0  0  0  0  0  0  0  0  0  0  0
   -4.2257    0.3635    0.0000 C   0  0  0  0  0  0  0  0  0  0  0  0
   -4.5705    1.8290    0.0000 O   0  0  0  0  0  0  0  0  0  0  0  0
   -3.5285   -0.7500    0.0000 C   0  0  0  0  0  0  0  0  0  0  0  0
   -2.9184   -2.1203    0.0000 C   0  0  0  0  0  0  0  0  0  0  0  0
   -4.1319   -3.0020    0.0000 C   0  0  0  0  0  0  0  0  0  0  0  0
   -1.8037   -3.1240    0.0000 C   0  0  0  0  0  0  0  0  0  0  0  0
   -0.3771   -3.5875    0.0000 N   0  0  0  0  0  0  0  0  0  0  0  0
   -0.5339   -5.0793    0.0000 C   0  0  0  0  0  0  0  0  0  0  0  0
    1.1147   -3.4307    0.0000 C   0  0  0  0  0  0  0  0  0  0  0  0
    1.5782   -4.8573    0.0000 C   0  0  0  0  0  0  0  0  0  0  0  0
    2.4138   -2.6807    0.0000 C   0  0  0  0  0  0  0  0  0  0  0  0
    3.4175   -3.7955    0.0000 O   0  0  0  0  0  0  0  0  0  0  0  0
    3.2954   -1.4672    0.0000 C   0  0  0  0  0  0  0  0  0  0  0  0
    4.7726   -1.2067    0.0000 C   0  0  0  0  0  0  0  0  0  0  0  0
    4.0903   -2.7393    0.0000 O   0  0  0  0  0  0  0  0  0  0  0  0
  1  2  1  0
  3  2  1  6
  3  4  1  0
  4  5  1  0
  5  6  2  0
  5  7  1  0
  7  8  1  1
  7  9  1  0
  9 10  1  6
 11 10  1  1
 11 12  1  0
 12 13  1  0
 13 14  1  6
 13 15  1  0
 15 16  1  0
 13 17  1  0
 17 18  1  1
 17 19  1  0
 19 20  1  6
 19 21  1  0
  9 22  1  0
 22 23  1  1
 22 24  1  0
 24 25  1  6
 26 25  1  1
 26 27  1  0
 27 28  1  0
 28 29  1  1
 28 30  1  0
 30 31  1  0
 31 32  1  1
 31 33  1  0
 33 34  1  6
 24 35  1  0
 35 36  1  6
 35 37  1  0
 35 38  1  0
 38 39  1  0
 39 40  1  6
 39 41  1  0
 41 42  1  0
 42 43  1  0
 42 44  1  0
 44 45  1  1
 44 46  1  0
 46 47  1  6
 46 48  1  0
 48 49  1  6
 48 50  1  0
 48  3  1  0
 21 11  1  0
 33 26  1  0
M  END
>  <ChEMBL_IDs>  (220) 
CHEMBL2022719

>  <target_organism>  (220) 
Staphylococcus aureus

>  <target_molecule_pref_name>  (220) 
nan

>  <# Known Targets>  (220) 
nan

>  <Known Targets>  (220) 
nan

>  <smiles>  (220) 
CC[C@H]1OC(=O)[C@H](C)[C@@H](O[C@H]2C[C@@](C)(OC)[C@@H](O)[C@H](C)O2)[C@H](C)[C@@H](O[C@@H]2O[C@H](C)C[C@H](N)[C@H]2O)[C@](C)(O)C[C@@H](C)CN(C)[C@H](C)[C@@H](O)[C@]1(C)O

$$$$

     RDKit          2D

 52 54  0  0  0  0  0  0  0  0999 V2000
    6.0944   -1.2990    0.0000 C   0  0  0  0  0  0  0  0  0  0  0  0
    5.3444    0.0000    0.0000 C   0  0  0  0  0  0  0  0  0  0  0  0
    3.8444    0.0000    0.0000 C   0  0  0  0  0  0  0  0  0  0  0  0
    3.5517   -1.4712    0.0000 O   0  0  0  0  0  0  0  0  0  0  0  0
    2.7184   -2.7184    0.0000 C   0  0  0  0  0  0  0  0  0  0  0  0
    3.7790   -3.7790    0.0000 O   0  0  0  0  0  0  0  0  0  0  0  0
    1.4712   -3.5517    0.0000 C   0  0  0  0  0  0  0  0  0  0  0  0
   -0.0000   -3.8444    0.0000 C   0  0  0  0  0  0  0  0  0  0  0  0
   -0.0000   -5.3444    0.0000 O   0  0  0  0  0  0  0  0  0  0  0  0
   -1.4712   -3.5517    0.0000 C   0  0  0  0  0  0  0  0  0  0  0  0
   -1.6507   -4.7534    0.0000 C   0  0  0  0  0  0  0  0  0  0  0  0
   -2.7184   -2.7184    0.0000 C   0  0  0  0  0  0  0  0  0  0  0  0
   -3.7790   -3.7790    0.0000 O   0  0  0  0  0  0  0  0  0  0  0  0
   -3.3908   -5.2279    0.0000 C   0  0  0  0  0  0  0  0  0  0  0  0
   -1.9419   -5.6162    0.0000 O   0  0  0  0  0  0  0  0  0  0  0  0
   -1.5537   -7.0650    0.0000 C   0  0  0  0  0  0  0  0  0  0  0  0
   -0.1048   -7.4533    0.0000 C   0  0  0  0  0  0  0  0  0  0  0  0
   -2.6144   -8.1257    0.0000 C   0  0  0  0  0  0  0  0  0  0  0  0
   -2.2261   -9.5746    0.0000 O   0  0  0  0  0  0  0  0  0  0  0  0
   -4.0632   -7.7375    0.0000 C   0  0  0  0  0  0  0  0  0  0  0  0
   -5.1239   -8.7981    0.0000 O   0  0  0  0  0  0  0  0  0  0  0  0
   -4.4515   -6.2886    0.0000 C   0  0  0  0  0  0  0  0  0  0  0  0
   -5.9004   -5.9004    0.0000 O   0  0  0  0  0  0  0  0  0  0  0  0
   -3.5517   -1.4712    0.0000 C   0  0  0  0  0  0  0  0  0  0  0  0
   -4.9376   -2.0452    0.0000 C   0  0  0  0  0  0  0  0  0  0  0  0
   -6.1276   -1.1321    0.0000 C   0  0  0  0  0  0  0  0  0  0  0  0
   -7.5134   -1.7061    0.0000 O   0  0  0  0  0  0  0  0  0  0  0  0
   -3.8444    0.0000    0.0000 C   0  0  0  0  0  0  0  0  0  0  0  0
   -3.5517    1.4712    0.0000 C   0  0  0  0  0  0  0  0  0  0  0  0
   -4.9376    2.0452    0.0000 C   0  0  0  0  0  0  0  0  0  0  0  0
   -2.7184    2.7184    0.0000 C   0  0  0  0  0  0  0  0  0  0  0  0
   -3.7790    3.7790    0.0000 O   0  0  0  0  0  0  0  0  0  0  0  0
   -1.4712    3.5517    0.0000 C   0  0  0  0  0  0  0  0  0  0  0  0
    0.0000    3.8444    0.0000 C   0  0  0  0  0  0  0  0  0  0  0  0
    1.4712    3.5517    0.0000 C   0  0  0  0  0  0  0  0  0  0  0  0
    2.0452    4.9376    0.0000 C   0  0  0  0  0  0  0  0  0  0  0  0
    2.7184    2.7184    0.0000 C   0  0  0  0  0  0  0  0  0  0  0  0
    3.5517    1.4712    0.0000 C   0  0  0  0  0  0  0  0  0  0  0  0
    4.9376    2.0452    0.0000 C   0  0  0  0  0  0  0  0  0  0  0  0
    6.1276    1.1321    0.0000 O   0  0  0  0  0  0  0  0  0  0  0  0
    7.5134    1.7061    0.0000 C   0  0  0  0  0  0  0  0  0  0  0  0
    8.7034    0.7929    0.0000 O   0  0  0  0  0  0  0  0  0  0  0  0
   10.0893    1.3670    0.0000 C   0  0  0  0  0  0  0  0  0  0  0  0
   11.2793    0.4538    0.0000 C   0  0  0  0  0  0  0  0  0  0  0  0
   10.2850    2.8541    0.0000 C   0  0  0  0  0  0  0  0  0  0  0  0
   11.6709    3.4282    0.0000 O   0  0  0  0  0  0  0  0  0  0  0  0
    9.0950    3.7673    0.0000 C   0  0  0  0  0  0  0  0  0  0  0  0
    9.2908    5.2544    0.0000 O   0  0  0  0  0  0  0  0  0  0  0  0
    8.1008    6.1676    0.0000 C   0  0  0  0  0  0  0  0  0  0  0  0
    7.7092    3.1933    0.0000 C   0  0  0  0  0  0  0  0  0  0  0  0
    6.5192    4.1064    0.0000 O   0  0  0  0  0  0  0  0  0  0  0  0
    6.7150    5.5936    0.0000 C   0  0  0  0  0  0  0  0  0  0  0  0
  1  2  1  0
  3  2  1  1
  3  4  1  0
  4  5  1  0
  5  6  2  0
  5  7  1  0
  7  8  1  0
  8  9  1  1
  8 10  1  0
 10 11  1  6
 10 12  1  0
 12 13  1  1
 13 14  1  0
 14 15  1  0
 15 16  1  0
 16 17  1  0
 16 18  1  0
 18 19  1  0
 18 20  1  0
 20 21  2  0
 20 22  1  0
 22 23  1  0
 12 24  1  0
 24 25  1  1
 25 26  1  0
 26 27  2  0
 24 28  1  0
 28 29  1  0
 29 30  1  1
 29 31  1  0
 31 32  2  0
 31 33  1  0
 33 34  2  0
 34 35  1  0
 35 36  1  0
 35 37  2  0
 37 38  1  0
 38 39  1  6
 39 40  1  0
 40 41  1  0
 41 42  1  0
 42 43  1  0
 43 44  1  0
 43 45  1  0
 45 46  1  0
 45 47  1  0
 47 48  1  0
 48 49  1  0
 47 50  1  0
 50 51  1  0
 51 52  1  0
 38  3  1  0
 50 41  1  0
 22 14  1  0
M  END
>  <ChEMBL_IDs>  (221) 
CHEMBL341713

>  <target_organism>  (221) 
Hepatitis C virus,None

>  <target_molecule_pref_name>  (221) 
nan

>  <# Known Targets>  (221) 
nan

>  <Known Targets>  (221) 
nan

>  <smiles>  (221) 
CC[C@H]1OC(=O)C[C@@H](O)[C@H](C)[C@@H](OC2OC(C)C(O)C(=O)C2O)[C@@H](CC=O)C[C@@H](C)C(=O)/C=C/C(C)=C/[C@@H]1COC1OC(C)C(O)C(OC)C1OC

$$$$

     RDKit          2D

 49 51  0  0  0  0  0  0  0  0999 V2000
    6.0944   -1.2990    0.0000 C   0  0  0  0  0  0  0  0  0  0  0  0
    5.3444    0.0000    0.0000 C   0  0  0  0  0  0  0  0  0  0  0  0
    3.8444    0.0000    0.0000 C   0  0  0  0  0  0  0  0  0  0  0  0
    3.5517   -1.4712    0.0000 O   0  0  0  0  0  0  0  0  0  0  0  0
    2.7184   -2.7184    0.0000 C   0  0  0  0  0  0  0  0  0  0  0  0
    3.7790   -3.7790    0.0000 O   0  0  0  0  0  0  0  0  0  0  0  0
    1.4712   -3.5517    0.0000 C   0  0  0  0  0  0  0  0  0  0  0  0
   -0.0000   -3.8444    0.0000 C   0  0  0  0  0  0  0  0  0  0  0  0
   -1.4712   -3.5517    0.0000 C   0  0  0  0  0  0  0  0  0  0  0  0
   -1.6507   -4.7534    0.0000 C   0  0  0  0  0  0  0  0  0  0  0  0
   -2.7184   -2.7184    0.0000 C   0  0  0  0  0  0  0  0  0  0  0  0
   -3.7790   -3.7790    0.0000 O   0  0  0  0  0  0  0  0  0  0  0  0
   -3.3908   -5.2279    0.0000 C   0  0  0  0  0  0  0  0  0  0  0  0
   -1.9419   -5.6162    0.0000 O   0  0  0  0  0  0  0  0  0  0  0  0
   -1.5537   -7.0650    0.0000 C   0  0  0  0  0  0  0  0  0  0  0  0
   -0.1048   -7.4533    0.0000 C   0  0  0  0  0  0  0  0  0  0  0  0
   -2.6144   -8.1257    0.0000 C   0  0  0  0  0  0  0  0  0  0  0  0
   -4.0632   -7.7375    0.0000 C   0  0  0  0  0  0  0  0  0  0  0  0
   -5.1239   -8.7981    0.0000 N   0  0  0  0  0  0  0  0  0  0  0  0
   -4.7357  -10.2470    0.0000 C   0  0  0  0  0  0  0  0  0  0  0  0
   -6.5728   -8.4099    0.0000 C   0  0  0  0  0  0  0  0  0  0  0  0
   -4.4515   -6.2886    0.0000 C   0  0  0  0  0  0  0  0  0  0  0  0
   -5.9004   -5.9004    0.0000 O   0  0  0  0  0  0  0  0  0  0  0  0
   -3.5517   -1.4712    0.0000 C   0  0  0  0  0  0  0  0  0  0  0  0
   -4.9376   -2.0452    0.0000 C   0  0  0  0  0  0  0  0  0  0  0  0
   -3.8444    0.0000    0.0000 C   0  0  0  0  0  0  0  0  0  0  0  0
   -3.5517    1.4712    0.0000 C   0  0  0  0  0  0  0  0  0  0  0  0
   -4.9376    2.0452    0.0000 C   0  0  0  0  0  0  0  0  0  0  0  0
   -2.7184    2.7184    0.0000 C   0  0  0  0  0  0  0  0  0  0  0  0
   -3.7790    3.7790    0.0000 O   0  0  0  0  0  0  0  0  0  0  0  0
   -1.4712    3.5517    0.0000 C   0  0  0  0  0  0  0  0  0  0  0  0
    0.0000    3.8444    0.0000 C   0  0  0  0  0  0  0  0  0  0  0  0
    1.4712    3.5517    0.0000 C   0  0  0  0  0  0  0  0  0  0  0  0
    2.7184    2.7184    0.0000 C   0  0  0  0  0  0  0  0  0  0  0  0
    3.5517    1.4712    0.0000 C   0  0  0  0  0  0  0  0  0  0  0  0
    4.9376    2.0452    0.0000 C   0  0  0  0  0  0  0  0  0  0  0  0
    6.1276    1.1321    0.0000 O   0  0  0  0  0  0  0  0  0  0  0  0
    7.5134    1.7061    0.0000 C   0  0  0  0  0  0  0  0  0  0  0  0
    8.7034    0.7929    0.0000 O   0  0  0  0  0  0  0  0  0  0  0  0
   10.0893    1.3670    0.0000 C   0  0  0  0  0  0  0  0  0  0  0  0
   11.2793    0.4538    0.0000 C   0  0  0  0  0  0  0  0  0  0  0  0
   10.2850    2.8541    0.0000 C   0  0  0  0  0  0  0  0  0  0  0  0
   11.6709    3.4282    0.0000 O   0  0  0  0  0  0  0  0  0  0  0  0
    9.0950    3.7673    0.0000 C   0  0  0  0  0  0  0  0  0  0  0  0
    9.2908    5.2544    0.0000 O   0  0  0  0  0  0  0  0  0  0  0  0
    8.1008    6.1676    0.0000 C   0  0  0  0  0  0  0  0  0  0  0  0
    7.7092    3.1933    0.0000 C   0  0  0  0  0  0  0  0  0  0  0  0
    6.5192    4.1064    0.0000 O   0  0  0  0  0  0  0  0  0  0  0  0
    6.7150    5.5936    0.0000 C   0  0  0  0  0  0  0  0  0  0  0  0
  1  2  1  0
  2  3  1  0
  3  4  1  0
  4  5  1  0
  5  6  2  0
  5  7  1  0
  7  8  2  0
  8  9  1  0
  9 10  1  0
  9 11  1  0
 11 12  1  0
 12 13  1  0
 13 14  1  0
 14 15  1  0
 15 16  1  0
 15 17  1  0
 17 18  1  0
 18 19  1  0
 19 20  1  0
 19 21  1  0
 18 22  1  0
 22 23  1  0
 11 24  1  0
 24 25  1  0
 24 26  1  0
 26 27  1  0
 27 28  1  0
 27 29  1  0
 29 30  2  0
 29 31  1  0
 31 32  2  0
 32 33  1  0
 33 34  2  0
 34 35  1  0
 35 36  1  0
 36 37  1  0
 37 38  1  0
 38 39  1  0
 39 40  1  0
 40 41  1  0
 40 42  1  0
 42 43  1  0
 42 44  1  0
 44 45  1  0
 45 46  1  0
 44 47  1  0
 47 48  1  0
 48 49  1  0
 35  3  1  0
 47 38  1  0
 22 13  1  0
M  END
>  <ChEMBL_IDs>  (222) 
nan

>  <target_organism>  (222) 
nan

>  <target_molecule_pref_name>  (222) 
nan

>  <# Known Targets>  (222) 
nan

>  <Known Targets>  (222) 
nan

>  <smiles>  (222) 
CCC1OC(=O)/C=C\C(C)C(OC2OC(C)CC(N(C)C)C2O)C(C)CC(C)C(=O)/C=C\C=C/C1COC1OC(C)C(O)C(OC)C1OC

$$$$

     RDKit          2D

 49 51  0  0  0  0  0  0  0  0999 V2000
    6.0944   -1.2990    0.0000 C   0  0  0  0  0  0  0  0  0  0  0  0
    5.3444    0.0000    0.0000 C   0  0  0  0  0  0  0  0  0  0  0  0
    3.8444    0.0000    0.0000 C   0  0  0  0  0  0  0  0  0  0  0  0
    3.5517   -1.4712    0.0000 O   0  0  0  0  0  0  0  0  0  0  0  0
    2.7184   -2.7184    0.0000 C   0  0  0  0  0  0  0  0  0  0  0  0
    3.7790   -3.7790    0.0000 O   0  0  0  0  0  0  0  0  0  0  0  0
    1.4712   -3.5517    0.0000 C   0  0  0  0  0  0  0  0  0  0  0  0
   -0.0000   -3.8444    0.0000 C   0  0  0  0  0  0  0  0  0  0  0  0
   -1.4712   -3.5517    0.0000 C   0  0  0  0  0  0  0  0  0  0  0  0
   -1.6507   -4.7534    0.0000 C   0  0  0  0  0  0  0  0  0  0  0  0
   -2.7184   -2.7184    0.0000 C   0  0  0  0  0  0  0  0  0  0  0  0
   -3.7790   -3.7790    0.0000 O   0  0  0  0  0  0  0  0  0  0  0  0
   -3.3908   -5.2279    0.0000 C   0  0  0  0  0  0  0  0  0  0  0  0
   -1.9419   -5.6162    0.0000 O   0  0  0  0  0  0  0  0  0  0  0  0
   -1.5537   -7.0650    0.0000 C   0  0  0  0  0  0  0  0  0  0  0  0
   -0.1048   -7.4533    0.0000 C   0  0  0  0  0  0  0  0  0  0  0  0
   -2.6144   -8.1257    0.0000 C   0  0  0  0  0  0  0  0  0  0  0  0
   -4.0632   -7.7375    0.0000 C   0  0  0  0  0  0  0  0  0  0  0  0
   -5.1239   -8.7981    0.0000 N   0  0  0  0  0  0  0  0  0  0  0  0
   -4.7357  -10.2470    0.0000 C   0  0  0  0  0  0  0  0  0  0  0  0
   -6.5728   -8.4099    0.0000 C   0  0  0  0  0  0  0  0  0  0  0  0
   -4.4515   -6.2886    0.0000 C   0  0  0  0  0  0  0  0  0  0  0  0
   -5.9004   -5.9004    0.0000 O   0  0  0  0  0  0  0  0  0  0  0  0
   -3.5517   -1.4712    0.0000 C   0  0  0  0  0  0  0  0  0  0  0  0
   -4.9376   -2.0452    0.0000 C   0  0  0  0  0  0  0  0  0  0  0  0
   -3.8444    0.0000    0.0000 C   0  0  0  0  0  0  0  0  0  0  0  0
   -3.5517    1.4712    0.0000 C   0  0  0  0  0  0  0  0  0  0  0  0
   -4.9376    2.0452    0.0000 C   0  0  0  0  0  0  0  0  0  0  0  0
   -2.7184    2.7184    0.0000 C   0  0  0  0  0  0  0  0  0  0  0  0
   -3.7790    3.7790    0.0000 O   0  0  0  0  0  0  0  0  0  0  0  0
   -1.4712    3.5517    0.0000 C   0  0  0  0  0  0  0  0  0  0  0  0
    0.0000    3.8444    0.0000 C   0  0  0  0  0  0  0  0  0  0  0  0
    1.4712    3.5517    0.0000 C   0  0  0  0  0  0  0  0  0  0  0  0
    2.7184    2.7184    0.0000 C   0  0  0  0  0  0  0  0  0  0  0  0
    3.5517    1.4712    0.0000 C   0  0  0  0  0  0  0  0  0  0  0  0
    4.9376    2.0452    0.0000 C   0  0  0  0  0  0  0  0  0  0  0  0
    6.1276    1.1321    0.0000 O   0  0  0  0  0  0  0  0  0  0  0  0
    7.5134    1.7061    0.0000 C   0  0  0  0  0  0  0  0  0  0  0  0
    8.7034    0.7929    0.0000 O   0  0  0  0  0  0  0  0  0  0  0  0
   10.0893    1.3670    0.0000 C   0  0  0  0  0  0  0  0  0  0  0  0
   11.2793    0.4538    0.0000 C   0  0  0  0  0  0  0  0  0  0  0  0
   10.2850    2.8541    0.0000 C   0  0  0  0  0  0  0  0  0  0  0  0
   11.6709    3.4282    0.0000 O   0  0  0  0  0  0  0  0  0  0  0  0
    9.0950    3.7673    0.0000 C   0  0  0  0  0  0  0  0  0  0  0  0
    9.2908    5.2544    0.0000 O   0  0  0  0  0  0  0  0  0  0  0  0
    8.1008    6.1676    0.0000 C   0  0  0  0  0  0  0  0  0  0  0  0
    7.7092    3.1933    0.0000 C   0  0  0  0  0  0  0  0  0  0  0  0
    6.5192    4.1064    0.0000 O   0  0  0  0  0  0  0  0  0  0  0  0
    6.7150    5.5936    0.0000 C   0  0  0  0  0  0  0  0  0  0  0  0
  1  2  1  0
  2  3  1  0
  3  4  1  0
  4  5  1  0
  5  6  2  0
  5  7  1  0
  7  8  2  0
  8  9  1  0
  9 10  1  0
  9 11  1  0
 11 12  1  0
 12 13  1  0
 13 14  1  0
 14 15  1  0
 15 16  1  0
 15 17  1  0
 17 18  1  0
 18 19  1  0
 19 20  1  0
 19 21  1  0
 18 22  1  0
 22 23  1  0
 11 24  1  0
 24 25  1  0
 24 26  1  0
 26 27  1  0
 27 28  1  0
 27 29  1  0
 29 30  2  0
 29 31  1  0
 31 32  2  0
 32 33  1  0
 33 34  2  0
 34 35  1  0
 35 36  1  0
 36 37  1  0
 37 38  1  0
 38 39  1  0
 39 40  1  0
 40 41  1  0
 40 42  1  0
 42 43  1  0
 42 44  1  0
 44 45  1  0
 45 46  1  0
 44 47  1  0
 47 48  1  0
 48 49  1  0
 35  3  1  0
 47 38  1  0
 22 13  1  0
M  END
>  <ChEMBL_IDs>  (223) 
nan

>  <target_organism>  (223) 
nan

>  <target_molecule_pref_name>  (223) 
nan

>  <# Known Targets>  (223) 
nan

>  <Known Targets>  (223) 
nan

>  <smiles>  (223) 
CCC1OC(=O)/C=C\C(C)C(OC2OC(C)CC(N(C)C)C2O)C(C)CC(C)C(=O)/C=C\C=C/C1COC1OC(C)C(O)C(OC)C1OC

$$$$

     RDKit          2D

 49 51  0  0  0  0  0  0  0  0999 V2000
    6.0944   -1.2990    0.0000 C   0  0  0  0  0  0  0  0  0  0  0  0
    5.3444    0.0000    0.0000 C   0  0  0  0  0  0  0  0  0  0  0  0
    3.8444    0.0000    0.0000 C   0  0  0  0  0  0  0  0  0  0  0  0
    3.5517   -1.4712    0.0000 O   0  0  0  0  0  0  0  0  0  0  0  0
    2.7184   -2.7184    0.0000 C   0  0  0  0  0  0  0  0  0  0  0  0
    3.7790   -3.7790    0.0000 O   0  0  0  0  0  0  0  0  0  0  0  0
    1.4712   -3.5517    0.0000 C   0  0  0  0  0  0  0  0  0  0  0  0
   -0.0000   -3.8444    0.0000 C   0  0  0  0  0  0  0  0  0  0  0  0
   -1.4712   -3.5517    0.0000 C   0  0  0  0  0  0  0  0  0  0  0  0
   -1.6507   -4.7534    0.0000 C   0  0  0  0  0  0  0  0  0  0  0  0
   -2.7184   -2.7184    0.0000 C   0  0  0  0  0  0  0  0  0  0  0  0
   -3.7790   -3.7790    0.0000 O   0  0  0  0  0  0  0  0  0  0  0  0
   -3.3908   -5.2279    0.0000 C   0  0  0  0  0  0  0  0  0  0  0  0
   -1.9419   -5.6162    0.0000 O   0  0  0  0  0  0  0  0  0  0  0  0
   -1.5537   -7.0650    0.0000 C   0  0  0  0  0  0  0  0  0  0  0  0
   -0.1048   -7.4533    0.0000 C   0  0  0  0  0  0  0  0  0  0  0  0
   -2.6144   -8.1257    0.0000 C   0  0  0  0  0  0  0  0  0  0  0  0
   -4.0632   -7.7375    0.0000 C   0  0  0  0  0  0  0  0  0  0  0  0
   -5.1239   -8.7981    0.0000 N   0  0  0  0  0  0  0  0  0  0  0  0
   -4.7357  -10.2470    0.0000 C   0  0  0  0  0  0  0  0  0  0  0  0
   -6.5728   -8.4099    0.0000 C   0  0  0  0  0  0  0  0  0  0  0  0
   -4.4515   -6.2886    0.0000 C   0  0  0  0  0  0  0  0  0  0  0  0
   -5.9004   -5.9004    0.0000 O   0  0  0  0  0  0  0  0  0  0  0  0
   -3.5517   -1.4712    0.0000 C   0  0  0  0  0  0  0  0  0  0  0  0
   -4.9376   -2.0452    0.0000 C   0  0  0  0  0  0  0  0  0  0  0  0
   -3.8444    0.0000    0.0000 C   0  0  0  0  0  0  0  0  0  0  0  0
   -3.5517    1.4712    0.0000 C   0  0  0  0  0  0  0  0  0  0  0  0
   -4.9376    2.0452    0.0000 C   0  0  0  0  0  0  0  0  0  0  0  0
   -2.7184    2.7184    0.0000 C   0  0  0  0  0  0  0  0  0  0  0  0
   -3.7790    3.7790    0.0000 O   0  0  0  0  0  0  0  0  0  0  0  0
   -1.4712    3.5517    0.0000 C   0  0  0  0  0  0  0  0  0  0  0  0
    0.0000    3.8444    0.0000 C   0  0  0  0  0  0  0  0  0  0  0  0
    1.4712    3.5517    0.0000 C   0  0  0  0  0  0  0  0  0  0  0  0
    2.7184    2.7184    0.0000 C   0  0  0  0  0  0  0  0  0  0  0  0
    3.5517    1.4712    0.0000 C   0  0  0  0  0  0  0  0  0  0  0  0
    4.9376    2.0452    0.0000 C   0  0  0  0  0  0  0  0  0  0  0  0
    6.1276    1.1321    0.0000 O   0  0  0  0  0  0  0  0  0  0  0  0
    7.5134    1.7061    0.0000 C   0  0  0  0  0  0  0  0  0  0  0  0
    8.7034    0.7929    0.0000 O   0  0  0  0  0  0  0  0  0  0  0  0
   10.0893    1.3670    0.0000 C   0  0  0  0  0  0  0  0  0  0  0  0
   11.2793    0.4538    0.0000 C   0  0  0  0  0  0  0  0  0  0  0  0
   10.2850    2.8541    0.0000 C   0  0  0  0  0  0  0  0  0  0  0  0
   11.6709    3.4282    0.0000 O   0  0  0  0  0  0  0  0  0  0  0  0
    9.0950    3.7673    0.0000 C   0  0  0  0  0  0  0  0  0  0  0  0
    9.2908    5.2544    0.0000 O   0  0  0  0  0  0  0  0  0  0  0  0
    8.1008    6.1676    0.0000 C   0  0  0  0  0  0  0  0  0  0  0  0
    7.7092    3.1933    0.0000 C   0  0  0  0  0  0  0  0  0  0  0  0
    6.5192    4.1064    0.0000 O   0  0  0  0  0  0  0  0  0  0  0  0
    6.7150    5.5936    0.0000 C   0  0  0  0  0  0  0  0  0  0  0  0
  1  2  1  0
  2  3  1  0
  3  4  1  0
  4  5  1  0
  5  6  2  0
  5  7  1  0
  7  8  2  0
  8  9  1  0
  9 10  1  0
  9 11  1  0
 11 12  1  0
 12 13  1  0
 13 14  1  0
 14 15  1  0
 15 16  1  0
 15 17  1  0
 17 18  1  0
 18 19  1  0
 19 20  1  0
 19 21  1  0
 18 22  1  0
 22 23  1  0
 11 24  1  0
 24 25  1  0
 24 26  1  0
 26 27  1  0
 27 28  1  0
 27 29  1  0
 29 30  2  0
 29 31  1  0
 31 32  2  0
 32 33  1  0
 33 34  2  0
 34 35  1  0
 35 36  1  0
 36 37  1  0
 37 38  1  0
 38 39  1  0
 39 40  1  0
 40 41  1  0
 40 42  1  0
 42 43  1  0
 42 44  1  0
 44 45  1  0
 45 46  1  0
 44 47  1  0
 47 48  1  0
 48 49  1  0
 35  3  1  0
 47 38  1  0
 22 13  1  0
M  END
>  <ChEMBL_IDs>  (224) 
nan

>  <target_organism>  (224) 
nan

>  <target_molecule_pref_name>  (224) 
nan

>  <# Known Targets>  (224) 
nan

>  <Known Targets>  (224) 
nan

>  <smiles>  (224) 
CCC1OC(=O)/C=C\C(C)C(OC2OC(C)CC(N(C)C)C2O)C(C)CC(C)C(=O)/C=C\C=C/C1COC1OC(C)C(O)C(OC)C1OC

$$$$

     RDKit          2D

 50 52  0  0  0  0  0  0  0  0999 V2000
    6.0944   -1.2990    0.0000 C   0  0  0  0  0  0  0  0  0  0  0  0
    5.3444    0.0000    0.0000 C   0  0  0  0  0  0  0  0  0  0  0  0
    3.8444    0.0000    0.0000 C   0  0  0  0  0  0  0  0  0  0  0  0
    3.5517   -1.4712    0.0000 O   0  0  0  0  0  0  0  0  0  0  0  0
    2.7184   -2.7184    0.0000 C   0  0  0  0  0  0  0  0  0  0  0  0
    3.7790   -3.7790    0.0000 O   0  0  0  0  0  0  0  0  0  0  0  0
    1.4712   -3.5517    0.0000 C   0  0  0  0  0  0  0  0  0  0  0  0
   -0.0000   -3.8444    0.0000 C   0  0  0  0  0  0  0  0  0  0  0  0
   -1.4712   -3.5517    0.0000 C   0  0  0  0  0  0  0  0  0  0  0  0
   -1.6507   -4.7534    0.0000 C   0  0  0  0  0  0  0  0  0  0  0  0
   -2.7184   -2.7184    0.0000 C   0  0  0  0  0  0  0  0  0  0  0  0
   -3.7790   -3.7790    0.0000 O   0  0  0  0  0  0  0  0  0  0  0  0
   -3.3908   -5.2279    0.0000 C   0  0  0  0  0  0  0  0  0  0  0  0
   -1.9419   -5.6162    0.0000 O   0  0  0  0  0  0  0  0  0  0  0  0
   -1.5537   -7.0650    0.0000 C   0  0  0  0  0  0  0  0  0  0  0  0
   -0.1048   -7.4533    0.0000 C   0  0  0  0  0  0  0  0  0  0  0  0
   -2.6144   -8.1257    0.0000 C   0  0  0  0  0  0  0  0  0  0  0  0
   -4.0632   -7.7375    0.0000 C   0  0  0  0  0  0  0  0  0  0  0  0
   -5.1239   -8.7981    0.0000 N   0  0  0  0  0  0  0  0  0  0  0  0
   -4.7357  -10.2470    0.0000 C   0  0  0  0  0  0  0  0  0  0  0  0
   -6.5728   -8.4099    0.0000 C   0  0  0  0  0  0  0  0  0  0  0  0
   -4.4515   -6.2886    0.0000 C   0  0  0  0  0  0  0  0  0  0  0  0
   -5.9004   -5.9004    0.0000 O   0  0  0  0  0  0  0  0  0  0  0  0
   -3.5517   -1.4712    0.0000 C   0  0  0  0  0  0  0  0  0  0  0  0
   -4.9376   -2.0452    0.0000 C   0  0  0  0  0  0  0  0  0  0  0  0
   -3.8444    0.0000    0.0000 C   0  0  0  0  0  0  0  0  0  0  0  0
   -3.5517    1.4712    0.0000 C   0  0  0  0  0  0  0  0  0  0  0  0
   -4.9376    2.0452    0.0000 C   0  0  0  0  0  0  0  0  0  0  0  0
   -2.7184    2.7184    0.0000 C   0  0  0  0  0  0  0  0  0  0  0  0
   -3.7790    3.7790    0.0000 O   0  0  0  0  0  0  0  0  0  0  0  0
   -1.4712    3.5517    0.0000 C   0  0  0  0  0  0  0  0  0  0  0  0
    0.0000    3.8444    0.0000 C   0  0  0  0  0  0  0  0  0  0  0  0
    1.4712    3.5517    0.0000 C   0  0  0  0  0  0  0  0  0  0  0  0
    2.7184    2.7184    0.0000 C   0  0  0  0  0  0  0  0  0  0  0  0
    3.5517    1.4712    0.0000 C   0  0  0  0  0  0  0  0  0  0  0  0
    5.0229    1.1785    0.0000 O   0  0  0  0  0  0  0  0  0  0  0  0
    4.3851    2.7184    0.0000 C   0  0  0  0  0  0  0  0  0  0  0  0
    5.8819    2.6203    0.0000 O   0  0  0  0  0  0  0  0  0  0  0  0
    6.7152    3.8675    0.0000 C   0  0  0  0  0  0  0  0  0  0  0  0
    8.2120    3.7694    0.0000 O   0  0  0  0  0  0  0  0  0  0  0  0
    9.0454    5.0166    0.0000 C   0  0  0  0  0  0  0  0  0  0  0  0
   10.5422    4.9185    0.0000 C   0  0  0  0  0  0  0  0  0  0  0  0
    8.3819    6.3619    0.0000 C   0  0  0  0  0  0  0  0  0  0  0  0
    9.2153    7.6091    0.0000 O   0  0  0  0  0  0  0  0  0  0  0  0
    6.8852    6.4600    0.0000 C   0  0  0  0  0  0  0  0  0  0  0  0
    6.2217    7.8053    0.0000 O   0  0  0  0  0  0  0  0  0  0  0  0
    4.7249    7.9034    0.0000 C   0  0  0  0  0  0  0  0  0  0  0  0
    6.0518    5.2128    0.0000 C   0  0  0  0  0  0  0  0  0  0  0  0
    4.5550    5.3109    0.0000 O   0  0  0  0  0  0  0  0  0  0  0  0
    3.8916    6.6562    0.0000 C   0  0  0  0  0  0  0  0  0  0  0  0
  1  2  1  0
  2  3  1  0
  3  4  1  0
  4  5  1  0
  5  6  2  0
  5  7  1  0
  7  8  2  0
  8  9  1  0
  9 10  1  0
  9 11  1  0
 11 12  1  0
 12 13  1  0
 13 14  1  0
 14 15  1  0
 15 16  1  0
 15 17  1  0
 17 18  1  0
 18 19  1  0
 19 20  1  0
 19 21  1  0
 18 22  1  0
 22 23  1  0
 11 24  1  0
 24 25  1  0
 24 26  1  0
 26 27  1  0
 27 28  1  0
 27 29  1  0
 29 30  2  0
 29 31  1  0
 31 32  2  0
 32 33  1  0
 33 34  2  0
 34 35  1  0
 35 36  1  0
 35 37  1  0
 37 38  1  0
 38 39  1  0
 39 40  1  0
 40 41  1  0
 41 42  1  0
 41 43  1  0
 43 44  1  0
 43 45  1  0
 45 46  1  0
 46 47  1  0
 45 48  1  0
 48 49  1  0
 49 50  1  0
 35  3  1  0
 48 39  1  0
 22 13  1  0
M  END
>  <ChEMBL_IDs>  (225) 
nan

>  <target_organism>  (225) 
nan

>  <target_molecule_pref_name>  (225) 
nan

>  <# Known Targets>  (225) 
nan

>  <Known Targets>  (225) 
nan

>  <smiles>  (225) 
CCC1OC(=O)/C=C\C(C)C(OC2OC(C)CC(N(C)C)C2O)C(C)CC(C)C(=O)/C=C\C=C/C1(O)COC1OC(C)C(O)C(OC)C1OC

$$$$

     RDKit          2D

 50 52  0  0  0  0  0  0  0  0999 V2000
    6.0944   -1.2990    0.0000 C   0  0  0  0  0  0  0  0  0  0  0  0
    5.3444    0.0000    0.0000 C   0  0  0  0  0  0  0  0  0  0  0  0
    3.8444    0.0000    0.0000 C   0  0  0  0  0  0  0  0  0  0  0  0
    3.5517   -1.4712    0.0000 O   0  0  0  0  0  0  0  0  0  0  0  0
    2.7184   -2.7184    0.0000 C   0  0  0  0  0  0  0  0  0  0  0  0
    3.7790   -3.7790    0.0000 O   0  0  0  0  0  0  0  0  0  0  0  0
    1.4712   -3.5517    0.0000 C   0  0  0  0  0  0  0  0  0  0  0  0
   -0.0000   -3.8444    0.0000 C   0  0  0  0  0  0  0  0  0  0  0  0
   -1.4712   -3.5517    0.0000 C   0  0  0  0  0  0  0  0  0  0  0  0
   -1.6507   -4.7534    0.0000 C   0  0  0  0  0  0  0  0  0  0  0  0
   -2.7184   -2.7184    0.0000 C   0  0  0  0  0  0  0  0  0  0  0  0
   -3.7790   -3.7790    0.0000 O   0  0  0  0  0  0  0  0  0  0  0  0
   -3.3908   -5.2279    0.0000 C   0  0  0  0  0  0  0  0  0  0  0  0
   -1.9419   -5.6162    0.0000 O   0  0  0  0  0  0  0  0  0  0  0  0
   -1.5537   -7.0650    0.0000 C   0  0  0  0  0  0  0  0  0  0  0  0
   -0.1048   -7.4533    0.0000 C   0  0  0  0  0  0  0  0  0  0  0  0
   -2.6144   -8.1257    0.0000 C   0  0  0  0  0  0  0  0  0  0  0  0
   -4.0632   -7.7375    0.0000 C   0  0  0  0  0  0  0  0  0  0  0  0
   -5.1239   -8.7981    0.0000 N   0  0  0  0  0  0  0  0  0  0  0  0
   -4.7357  -10.2470    0.0000 C   0  0  0  0  0  0  0  0  0  0  0  0
   -6.5728   -8.4099    0.0000 C   0  0  0  0  0  0  0  0  0  0  0  0
   -4.4515   -6.2886    0.0000 C   0  0  0  0  0  0  0  0  0  0  0  0
   -5.9004   -5.9004    0.0000 O   0  0  0  0  0  0  0  0  0  0  0  0
   -3.5517   -1.4712    0.0000 C   0  0  0  0  0  0  0  0  0  0  0  0
   -4.9376   -2.0452    0.0000 C   0  0  0  0  0  0  0  0  0  0  0  0
   -3.8444    0.0000    0.0000 C   0  0  0  0  0  0  0  0  0  0  0  0
   -3.5517    1.4712    0.0000 C   0  0  0  0  0  0  0  0  0  0  0  0
   -4.9376    2.0452    0.0000 C   0  0  0  0  0  0  0  0  0  0  0  0
   -2.7184    2.7184    0.0000 C   0  0  0  0  0  0  0  0  0  0  0  0
   -3.7790    3.7790    0.0000 O   0  0  0  0  0  0  0  0  0  0  0  0
   -1.4712    3.5517    0.0000 C   0  0  0  0  0  0  0  0  0  0  0  0
    0.0000    3.8444    0.0000 C   0  0  0  0  0  0  0  0  0  0  0  0
    1.4712    3.5517    0.0000 C   0  0  0  0  0  0  0  0  0  0  0  0
    2.7184    2.7184    0.0000 C   0  0  0  0  0  0  0  0  0  0  0  0
    3.5517    1.4712    0.0000 C   0  0  0  0  0  0  0  0  0  0  0  0
    5.0229    1.1785    0.0000 O   0  0  0  0  0  0  0  0  0  0  0  0
    4.3851    2.7184    0.0000 C   0  0  0  0  0  0  0  0  0  0  0  0
    5.8819    2.6203    0.0000 O   0  0  0  0  0  0  0  0  0  0  0  0
    6.7152    3.8675    0.0000 C   0  0  0  0  0  0  0  0  0  0  0  0
    8.2120    3.7694    0.0000 O   0  0  0  0  0  0  0  0  0  0  0  0
    9.0454    5.0166    0.0000 C   0  0  0  0  0  0  0  0  0  0  0  0
   10.5422    4.9185    0.0000 C   0  0  0  0  0  0  0  0  0  0  0  0
    8.3819    6.3619    0.0000 C   0  0  0  0  0  0  0  0  0  0  0  0
    9.2153    7.6091    0.0000 O   0  0  0  0  0  0  0  0  0  0  0  0
    6.8852    6.4600    0.0000 C   0  0  0  0  0  0  0  0  0  0  0  0
    6.2217    7.8053    0.0000 O   0  0  0  0  0  0  0  0  0  0  0  0
    4.7249    7.9034    0.0000 C   0  0  0  0  0  0  0  0  0  0  0  0
    6.0518    5.2128    0.0000 C   0  0  0  0  0  0  0  0  0  0  0  0
    4.5550    5.3109    0.0000 O   0  0  0  0  0  0  0  0  0  0  0  0
    3.8916    6.6562    0.0000 C   0  0  0  0  0  0  0  0  0  0  0  0
  1  2  1  0
  2  3  1  0
  3  4  1  0
  4  5  1  0
  5  6  2  0
  5  7  1  0
  7  8  2  0
  8  9  1  0
  9 10  1  0
  9 11  1  0
 11 12  1  0
 12 13  1  0
 13 14  1  0
 14 15  1  0
 15 16  1  0
 15 17  1  0
 17 18  1  0
 18 19  1  0
 19 20  1  0
 19 21  1  0
 18 22  1  0
 22 23  1  0
 11 24  1  0
 24 25  1  0
 24 26  1  0
 26 27  1  0
 27 28  1  0
 27 29  1  0
 29 30  2  0
 29 31  1  0
 31 32  2  0
 32 33  1  0
 33 34  2  0
 34 35  1  0
 35 36  1  0
 35 37  1  0
 37 38  1  0
 38 39  1  0
 39 40  1  0
 40 41  1  0
 41 42  1  0
 41 43  1  0
 43 44  1  0
 43 45  1  0
 45 46  1  0
 46 47  1  0
 45 48  1  0
 48 49  1  0
 49 50  1  0
 35  3  1  0
 48 39  1  0
 22 13  1  0
M  END
>  <ChEMBL_IDs>  (226) 
nan

>  <target_organism>  (226) 
nan

>  <target_molecule_pref_name>  (226) 
nan

>  <# Known Targets>  (226) 
nan

>  <Known Targets>  (226) 
nan

>  <smiles>  (226) 
CCC1OC(=O)/C=C\C(C)C(OC2OC(C)CC(N(C)C)C2O)C(C)CC(C)C(=O)/C=C\C=C/C1(O)COC1OC(C)C(O)C(OC)C1OC

$$$$

     RDKit          2D

 52 54  0  0  0  0  0  0  0  0999 V2000
    6.0944   -1.2990    0.0000 C   0  0  0  0  0  0  0  0  0  0  0  0
    5.3444    0.0000    0.0000 O   0  0  0  0  0  0  0  0  0  0  0  0
    3.8444    0.0000    0.0000 C   0  0  0  0  0  0  0  0  0  0  0  0
    3.5517   -1.4712    0.0000 C   0  0  0  0  0  0  0  0  0  0  0  0
    4.9376   -2.0452    0.0000 O   0  0  0  0  0  0  0  0  0  0  0  0
    5.1333   -3.5324    0.0000 C   0  0  0  0  0  0  0  0  0  0  0  0
    6.5192   -4.1064    0.0000 C   0  0  0  0  0  0  0  0  0  0  0  0
    3.9433   -4.4455    0.0000 O   0  0  0  0  0  0  0  0  0  0  0  0
    2.7184   -2.7184    0.0000 C   0  0  0  0  0  0  0  0  0  0  0  0
    1.4712   -3.5517    0.0000 C   0  0  0  0  0  0  0  0  0  0  0  0
    2.0452   -4.9376    0.0000 O   0  0  0  0  0  0  0  0  0  0  0  0
   -0.0000   -3.8444    0.0000 O   0  0  0  0  0  0  0  0  0  0  0  0
   -1.4712   -3.5517    0.0000 C   0  0  0  0  0  0  0  0  0  0  0  0
   -2.0452   -4.9376    0.0000 C   0  0  0  0  0  0  0  0  0  0  0  0
   -2.7184   -2.7184    0.0000 C   0  0  0  0  0  0  0  0  0  0  0  0
   -3.5517   -1.4712    0.0000 C   0  0  0  0  0  0  0  0  0  0  0  0
   -3.8444    0.0000    0.0000 C   0  0  0  0  0  0  0  0  0  0  0  0
   -3.5517    1.4712    0.0000 C   0  0  0  0  0  0  0  0  0  0  0  0
   -2.7184    2.7184    0.0000 C   0  0  0  0  0  0  0  0  0  0  0  0
   -1.4712    3.5517    0.0000 C   0  0  0  0  0  0  0  0  0  0  0  0
   -2.0452    4.9376    0.0000 O   0  0  0  0  0  0  0  0  0  0  0  0
    0.0000    3.8444    0.0000 C   0  0  0  0  0  0  0  0  0  0  0  0
    0.0000    5.3444    0.0000 C   0  0  0  0  0  0  0  0  0  0  0  0
    1.4712    3.5517    0.0000 C   0  0  0  0  0  0  0  0  0  0  0  0
    2.7184    2.7184    0.0000 C   0  0  0  0  0  0  0  0  0  0  0  0
    3.7790    3.7790    0.0000 C   0  0  0  0  0  0  0  0  0  0  0  0
    5.2279    3.3908    0.0000 C   0  0  0  0  0  0  0  0  0  0  0  0
    3.3908    5.2279    0.0000 O   0  0  0  0  0  0  0  0  0  0  0  0
    3.5517    1.4712    0.0000 C   0  0  0  0  0  0  0  0  0  0  0  0
    4.9376    2.0452    0.0000 O   0  0  0  0  0  0  0  0  0  0  0  0
    6.1276    1.1321    0.0000 C   0  0  0  0  0  0  0  0  0  0  0  0
    5.9318   -0.3551    0.0000 O   0  0  0  0  0  0  0  0  0  0  0  0
    7.1218   -1.2682    0.0000 C   0  0  0  0  0  0  0  0  0  0  0  0
    6.9260   -2.7554    0.0000 C   0  0  0  0  0  0  0  0  0  0  0  0
    8.5076   -0.6942    0.0000 C   0  0  0  0  0  0  0  0  0  0  0  0
    9.6977   -1.6074    0.0000 O   0  0  0  0  0  0  0  0  0  0  0  0
   11.0835   -1.0333    0.0000 C   0  0  0  0  0  0  0  0  0  0  0  0
   12.2735   -1.9465    0.0000 C   0  0  0  0  0  0  0  0  0  0  0  0
   13.6593   -1.3725    0.0000 C   0  0  0  0  0  0  0  0  0  0  0  0
   15.1579   -1.3070    0.0000 C   0  0  0  0  0  0  0  0  0  0  0  0
   13.9840   -2.8369    0.0000 O   0  0  0  0  0  0  0  0  0  0  0  0
   13.8551    0.1147    0.0000 C   0  0  0  0  0  0  0  0  0  0  0  0
   15.2410    0.6887    0.0000 O   0  0  0  0  0  0  0  0  0  0  0  0
   12.6651    1.0279    0.0000 C   0  0  0  0  0  0  0  0  0  0  0  0
   12.8609    2.5150    0.0000 C   0  0  0  0  0  0  0  0  0  0  0  0
   11.2793    0.4538    0.0000 O   0  0  0  0  0  0  0  0  0  0  0  0
    8.7034    0.7929    0.0000 C   0  0  0  0  0  0  0  0  0  0  0  0
   10.0893    1.3670    0.0000 N   0  0  0  0  0  0  0  0  0  0  0  0
   10.2850    2.8541    0.0000 C   0  0  0  0  0  0  0  0  0  0  0  0
   11.4649    0.7689    0.0000 C   0  0  0  0  0  0  0  0  0  0  0  0
    7.5134    1.7061    0.0000 C   0  0  0  0  0  0  0  0  0  0  0  0
    7.7092    3.1933    0.0000 O   0  0  0  0  0  0  0  0  0  0  0  0
  1  2  1  0
  2  3  1  0
  3  4  1  0
  4  5  1  0
  5  6  1  0
  6  7  1  0
  6  8  2  0
  4  9  1  0
  9 10  1  0
 10 11  2  0
 10 12  1  0
 12 13  1  0
 13 14  1  0
 13 15  1  0
 15 16  1  0
 16 17  2  0
 17 18  1  0
 18 19  2  0
 19 20  1  0
 20 21  1  0
 20 22  1  0
 22 23  1  0
 22 24  1  0
 24 25  1  0
 25 26  1  0
 26 27  1  0
 26 28  2  0
 25 29  1  0
 29 30  1  0
 30 31  1  0
 31 32  1  0
 32 33  1  0
 33 34  1  0
 33 35  1  0
 35 36  1  0
 36 37  1  0
 37 38  1  0
 38 39  1  0
 39 40  1  0
 39 41  1  0
 39 42  1  0
 42 43  1  0
 42 44  1  0
 44 45  1  0
 44 46  1  0
 35 47  1  0
 47 48  1  0
 48 49  1  0
 48 50  1  0
 47 51  1  0
 51 52  1  0
 29  3  1  0
 51 31  1  0
 46 37  1  0
M  END
>  <ChEMBL_IDs>  (227) 
nan

>  <target_organism>  (227) 
nan

>  <target_molecule_pref_name>  (227) 
nan

>  <# Known Targets>  (227) 
nan

>  <Known Targets>  (227) 
nan

>  <smiles>  (227) 
COC1C(OC(C)=O)CC(=O)OC(C)C/C=C\C=C/C(O)C(C)CC(C(C)=O)C1OC1OC(C)C(OC2CC(C)(O)C(O)C(C)O2)C(N(C)C)C1O

$$$$

     RDKit          2D

 52 54  0  0  0  0  0  0  0  0999 V2000
    6.0944   -1.2990    0.0000 C   0  0  0  0  0  0  0  0  0  0  0  0
    5.3444   -0.0000    0.0000 O   0  0  0  0  0  0  0  0  0  0  0  0
    3.8444   -0.0000    0.0000 C   0  0  0  0  0  0  0  0  0  0  0  0
    3.5517   -1.4712    0.0000 C   0  0  0  0  0  0  0  0  0  0  0  0
    4.9376   -2.0452    0.0000 O   0  0  0  0  0  0  0  0  0  0  0  0
    2.7184   -2.7184    0.0000 C   0  0  0  0  0  0  0  0  0  0  0  0
    1.4712   -3.5517    0.0000 C   0  0  0  0  0  0  0  0  0  0  0  0
    2.0452   -4.9376    0.0000 O   0  0  0  0  0  0  0  0  0  0  0  0
   -0.0000   -3.8444    0.0000 O   0  0  0  0  0  0  0  0  0  0  0  0
   -1.4712   -3.5517    0.0000 C   0  0  0  0  0  0  0  0  0  0  0  0
   -2.0452   -4.9376    0.0000 C   0  0  0  0  0  0  0  0  0  0  0  0
   -2.7184   -2.7184    0.0000 C   0  0  0  0  0  0  0  0  0  0  0  0
   -3.5517   -1.4712    0.0000 C   0  0  0  0  0  0  0  0  0  0  0  0
   -3.8444    0.0000    0.0000 C   0  0  0  0  0  0  0  0  0  0  0  0
   -3.5517    1.4712    0.0000 C   0  0  0  0  0  0  0  0  0  0  0  0
   -2.7184    2.7184    0.0000 C   0  0  0  0  0  0  0  0  0  0  0  0
   -1.4712    3.5517    0.0000 C   0  0  0  0  0  0  0  0  0  0  0  0
   -2.0452    4.9376    0.0000 O   0  0  0  0  0  0  0  0  0  0  0  0
   -0.0000    3.8444    0.0000 C   0  0  0  0  0  0  0  0  0  0  0  0
    0.0000    5.3444    0.0000 C   0  0  0  0  0  0  0  0  0  0  0  0
    1.4712    3.5517    0.0000 C   0  0  0  0  0  0  0  0  0  0  0  0
    2.7184    2.7184    0.0000 C   0  0  0  0  0  0  0  0  0  0  0  0
    3.7790    3.7790    0.0000 C   0  0  0  0  0  0  0  0  0  0  0  0
    5.2279    3.3908    0.0000 C   0  0  0  0  0  0  0  0  0  0  0  0
    6.2886    4.4515    0.0000 O   0  0  0  0  0  0  0  0  0  0  0  0
    3.5517    1.4712    0.0000 C   0  0  0  0  0  0  0  0  0  0  0  0
    4.9376    2.0452    0.0000 O   0  0  0  0  0  0  0  0  0  0  0  0
    6.1276    1.1321    0.0000 C   0  0  0  0  0  0  0  0  0  0  0  0
    5.9318   -0.3551    0.0000 O   0  0  0  0  0  0  0  0  0  0  0  0
    7.1218   -1.2682    0.0000 C   0  0  0  0  0  0  0  0  0  0  0  0
    6.9260   -2.7554    0.0000 C   0  0  0  0  0  0  0  0  0  0  0  0
    8.5076   -0.6942    0.0000 C   0  0  0  0  0  0  0  0  0  0  0  0
    9.6977   -1.6074    0.0000 O   0  0  0  0  0  0  0  0  0  0  0  0
   11.0835   -1.0333    0.0000 C   0  0  0  0  0  0  0  0  0  0  0  0
   12.2735   -1.9465    0.0000 C   0  0  0  0  0  0  0  0  0  0  0  0
   13.6593   -1.3725    0.0000 C   0  0  0  0  0  0  0  0  0  0  0  0
   15.1579   -1.3070    0.0000 C   0  0  0  0  0  0  0  0  0  0  0  0
   13.9840   -2.8369    0.0000 O   0  0  0  0  0  0  0  0  0  0  0  0
   13.8551    0.1147    0.0000 C   0  0  0  0  0  0  0  0  0  0  0  0
   15.2410    0.6887    0.0000 O   0  0  0  0  0  0  0  0  0  0  0  0
   15.4367    2.1759    0.0000 C   0  0  0  0  0  0  0  0  0  0  0  0
   16.8226    2.7499    0.0000 C   0  0  0  0  0  0  0  0  0  0  0  0
   14.2467    3.0890    0.0000 O   0  0  0  0  0  0  0  0  0  0  0  0
   12.6651    1.0279    0.0000 C   0  0  0  0  0  0  0  0  0  0  0  0
   12.8609    2.5150    0.0000 C   0  0  0  0  0  0  0  0  0  0  0  0
   11.2793    0.4538    0.0000 O   0  0  0  0  0  0  0  0  0  0  0  0
    8.7034    0.7929    0.0000 C   0  0  0  0  0  0  0  0  0  0  0  0
   10.0893    1.3670    0.0000 N   0  0  0  0  0  0  0  0  0  0  0  0
   10.2850    2.8541    0.0000 C   0  0  0  0  0  0  0  0  0  0  0  0
   11.4649    0.7689    0.0000 C   0  0  0  0  0  0  0  0  0  0  0  0
    7.5134    1.7061    0.0000 C   0  0  0  0  0  0  0  0  0  0  0  0
    7.7092    3.1933    0.0000 O   0  0  0  0  0  0  0  0  0  0  0  0
  1  2  1  0
  2  3  1  0
  3  4  1  0
  4  5  1  0
  4  6  1  0
  6  7  1  0
  7  8  2  0
  7  9  1  0
  9 10  1  0
 10 11  1  0
 10 12  1  0
 12 13  1  0
 13 14  2  0
 14 15  1  0
 15 16  2  0
 16 17  1  0
 17 18  1  0
 17 19  1  0
 19 20  1  0
 19 21  1  0
 21 22  1  0
 22 23  1  0
 23 24  1  0
 24 25  2  0
 22 26  1  0
 26 27  1  0
 27 28  1  0
 28 29  1  0
 29 30  1  0
 30 31  1  0
 30 32  1  0
 32 33  1  0
 33 34  1  0
 34 35  1  0
 35 36  1  0
 36 37  1  0
 36 38  1  0
 36 39  1  0
 39 40  1  0
 40 41  1  0
 41 42  1  0
 41 43  2  0
 39 44  1  0
 44 45  1  0
 44 46  1  0
 32 47  1  0
 47 48  1  0
 48 49  1  0
 48 50  1  0
 47 51  1  0
 51 52  1  0
 26  3  1  0
 51 28  1  0
 46 34  1  0
M  END
>  <ChEMBL_IDs>  (228) 
nan

>  <target_organism>  (228) 
nan

>  <target_molecule_pref_name>  (228) 
nan

>  <# Known Targets>  (228) 
nan

>  <Known Targets>  (228) 
nan

>  <smiles>  (228) 
COC1C(O)CC(=O)OC(C)C/C=C\C=C/C(O)C(C)CC(CC=O)C1OC1OC(C)C(OC2CC(C)(O)C(OC(C)=O)C(C)O2)C(N(C)C)C1O

$$$$

     RDKit          2D

 52 54  0  0  0  0  0  0  0  0999 V2000
    6.0944   -1.2990    0.0000 C   0  0  0  0  0  0  0  0  0  0  0  0
    5.3444   -0.0000    0.0000 O   0  0  0  0  0  0  0  0  0  0  0  0
    3.8444   -0.0000    0.0000 C   0  0  0  0  0  0  0  0  0  0  0  0
    3.5517   -1.4712    0.0000 C   0  0  0  0  0  0  0  0  0  0  0  0
    4.9376   -2.0452    0.0000 O   0  0  0  0  0  0  0  0  0  0  0  0
    2.7184   -2.7184    0.0000 C   0  0  0  0  0  0  0  0  0  0  0  0
    1.4712   -3.5517    0.0000 C   0  0  0  0  0  0  0  0  0  0  0  0
    2.0452   -4.9376    0.0000 O   0  0  0  0  0  0  0  0  0  0  0  0
   -0.0000   -3.8444    0.0000 O   0  0  0  0  0  0  0  0  0  0  0  0
   -1.4712   -3.5517    0.0000 C   0  0  0  0  0  0  0  0  0  0  0  0
   -2.0452   -4.9376    0.0000 C   0  0  0  0  0  0  0  0  0  0  0  0
   -2.7184   -2.7184    0.0000 C   0  0  0  0  0  0  0  0  0  0  0  0
   -3.5517   -1.4712    0.0000 C   0  0  0  0  0  0  0  0  0  0  0  0
   -3.8444    0.0000    0.0000 C   0  0  0  0  0  0  0  0  0  0  0  0
   -3.5517    1.4712    0.0000 C   0  0  0  0  0  0  0  0  0  0  0  0
   -2.7184    2.7184    0.0000 C   0  0  0  0  0  0  0  0  0  0  0  0
   -1.4712    3.5517    0.0000 C   0  0  0  0  0  0  0  0  0  0  0  0
   -2.0452    4.9376    0.0000 O   0  0  0  0  0  0  0  0  0  0  0  0
   -0.0000    3.8444    0.0000 C   0  0  0  0  0  0  0  0  0  0  0  0
    0.0000    5.3444    0.0000 C   0  0  0  0  0  0  0  0  0  0  0  0
    1.4712    3.5517    0.0000 C   0  0  0  0  0  0  0  0  0  0  0  0
    2.7184    2.7184    0.0000 C   0  0  0  0  0  0  0  0  0  0  0  0
    3.7790    3.7790    0.0000 C   0  0  0  0  0  0  0  0  0  0  0  0
    5.2279    3.3908    0.0000 C   0  0  0  0  0  0  0  0  0  0  0  0
    6.2886    4.4515    0.0000 O   0  0  0  0  0  0  0  0  0  0  0  0
    3.5517    1.4712    0.0000 C   0  0  0  0  0  0  0  0  0  0  0  0
    4.9376    2.0452    0.0000 O   0  0  0  0  0  0  0  0  0  0  0  0
    6.1276    1.1321    0.0000 C   0  0  0  0  0  0  0  0  0  0  0  0
    5.9318   -0.3551    0.0000 O   0  0  0  0  0  0  0  0  0  0  0  0
    7.1218   -1.2682    0.0000 C   0  0  0  0  0  0  0  0  0  0  0  0
    6.9260   -2.7554    0.0000 C   0  0  0  0  0  0  0  0  0  0  0  0
    8.5076   -0.6942    0.0000 C   0  0  0  0  0  0  0  0  0  0  0  0
    9.6977   -1.6074    0.0000 O   0  0  0  0  0  0  0  0  0  0  0  0
   11.0835   -1.0333    0.0000 C   0  0  0  0  0  0  0  0  0  0  0  0
   12.2735   -1.9465    0.0000 C   0  0  0  0  0  0  0  0  0  0  0  0
   13.6593   -1.3725    0.0000 C   0  0  0  0  0  0  0  0  0  0  0  0
   15.1579   -1.3070    0.0000 C   0  0  0  0  0  0  0  0  0  0  0  0
   13.9840   -2.8369    0.0000 O   0  0  0  0  0  0  0  0  0  0  0  0
   13.8551    0.1147    0.0000 C   0  0  0  0  0  0  0  0  0  0  0  0
   15.2410    0.6887    0.0000 O   0  0  0  0  0  0  0  0  0  0  0  0
   15.4367    2.1759    0.0000 C   0  0  0  0  0  0  0  0  0  0  0  0
   16.8226    2.7499    0.0000 C   0  0  0  0  0  0  0  0  0  0  0  0
   14.2467    3.0890    0.0000 O   0  0  0  0  0  0  0  0  0  0  0  0
   12.6651    1.0279    0.0000 C   0  0  0  0  0  0  0  0  0  0  0  0
   12.8609    2.5150    0.0000 C   0  0  0  0  0  0  0  0  0  0  0  0
   11.2793    0.4538    0.0000 O   0  0  0  0  0  0  0  0  0  0  0  0
    8.7034    0.7929    0.0000 C   0  0  0  0  0  0  0  0  0  0  0  0
   10.0893    1.3670    0.0000 N   0  0  0  0  0  0  0  0  0  0  0  0
   10.2850    2.8541    0.0000 C   0  0  0  0  0  0  0  0  0  0  0  0
   11.4649    0.7689    0.0000 C   0  0  0  0  0  0  0  0  0  0  0  0
    7.5134    1.7061    0.0000 C   0  0  0  0  0  0  0  0  0  0  0  0
    7.7092    3.1933    0.0000 O   0  0  0  0  0  0  0  0  0  0  0  0
  1  2  1  0
  2  3  1  0
  3  4  1  0
  4  5  1  0
  4  6  1  0
  6  7  1  0
  7  8  2  0
  7  9  1  0
  9 10  1  0
 10 11  1  0
 10 12  1  0
 12 13  1  0
 13 14  2  0
 14 15  1  0
 15 16  2  0
 16 17  1  0
 17 18  1  0
 17 19  1  0
 19 20  1  0
 19 21  1  0
 21 22  1  0
 22 23  1  0
 23 24  1  0
 24 25  2  0
 22 26  1  0
 26 27  1  0
 27 28  1  0
 28 29  1  0
 29 30  1  0
 30 31  1  0
 30 32  1  0
 32 33  1  0
 33 34  1  0
 34 35  1  0
 35 36  1  0
 36 37  1  0
 36 38  1  0
 36 39  1  0
 39 40  1  0
 40 41  1  0
 41 42  1  0
 41 43  2  0
 39 44  1  0
 44 45  1  0
 44 46  1  0
 32 47  1  0
 47 48  1  0
 48 49  1  0
 48 50  1  0
 47 51  1  0
 51 52  1  0
 26  3  1  0
 51 28  1  0
 46 34  1  0
M  END
>  <ChEMBL_IDs>  (229) 
nan

>  <target_organism>  (229) 
nan

>  <target_molecule_pref_name>  (229) 
nan

>  <# Known Targets>  (229) 
nan

>  <Known Targets>  (229) 
nan

>  <smiles>  (229) 
COC1C(O)CC(=O)OC(C)C/C=C\C=C/C(O)C(C)CC(CC=O)C1OC1OC(C)C(OC2CC(C)(O)C(OC(C)=O)C(C)O2)C(N(C)C)C1O

$$$$

     RDKit          2D

 52 54  0  0  0  0  0  0  0  0999 V2000
    6.0944   -1.2990    0.0000 C   0  0  0  0  0  0  0  0  0  0  0  0
    5.3444   -0.0000    0.0000 O   0  0  0  0  0  0  0  0  0  0  0  0
    3.8444   -0.0000    0.0000 C   0  0  0  0  0  0  0  0  0  0  0  0
    3.5517   -1.4712    0.0000 C   0  0  0  0  0  0  0  0  0  0  0  0
    4.9376   -2.0452    0.0000 O   0  0  0  0  0  0  0  0  0  0  0  0
    2.7184   -2.7184    0.0000 C   0  0  0  0  0  0  0  0  0  0  0  0
    1.4712   -3.5517    0.0000 C   0  0  0  0  0  0  0  0  0  0  0  0
    2.0452   -4.9376    0.0000 O   0  0  0  0  0  0  0  0  0  0  0  0
   -0.0000   -3.8444    0.0000 O   0  0  0  0  0  0  0  0  0  0  0  0
   -1.4712   -3.5517    0.0000 C   0  0  0  0  0  0  0  0  0  0  0  0
   -2.0452   -4.9376    0.0000 C   0  0  0  0  0  0  0  0  0  0  0  0
   -2.7184   -2.7184    0.0000 C   0  0  0  0  0  0  0  0  0  0  0  0
   -3.5517   -1.4712    0.0000 C   0  0  0  0  0  0  0  0  0  0  0  0
   -3.8444    0.0000    0.0000 C   0  0  0  0  0  0  0  0  0  0  0  0
   -3.5517    1.4712    0.0000 C   0  0  0  0  0  0  0  0  0  0  0  0
   -2.7184    2.7184    0.0000 C   0  0  0  0  0  0  0  0  0  0  0  0
   -1.4712    3.5517    0.0000 C   0  0  0  0  0  0  0  0  0  0  0  0
   -2.0452    4.9376    0.0000 O   0  0  0  0  0  0  0  0  0  0  0  0
   -0.0000    3.8444    0.0000 C   0  0  0  0  0  0  0  0  0  0  0  0
    0.0000    5.3444    0.0000 C   0  0  0  0  0  0  0  0  0  0  0  0
    1.4712    3.5517    0.0000 C   0  0  0  0  0  0  0  0  0  0  0  0
    2.7184    2.7184    0.0000 C   0  0  0  0  0  0  0  0  0  0  0  0
    3.7790    3.7790    0.0000 C   0  0  0  0  0  0  0  0  0  0  0  0
    5.2279    3.3908    0.0000 C   0  0  0  0  0  0  0  0  0  0  0  0
    6.2886    4.4515    0.0000 O   0  0  0  0  0  0  0  0  0  0  0  0
    3.5517    1.4712    0.0000 C   0  0  0  0  0  0  0  0  0  0  0  0
    4.9376    2.0452    0.0000 O   0  0  0  0  0  0  0  0  0  0  0  0
    6.1276    1.1321    0.0000 C   0  0  0  0  0  0  0  0  0  0  0  0
    5.9318   -0.3551    0.0000 O   0  0  0  0  0  0  0  0  0  0  0  0
    7.1218   -1.2682    0.0000 C   0  0  0  0  0  0  0  0  0  0  0  0
    6.9260   -2.7554    0.0000 C   0  0  0  0  0  0  0  0  0  0  0  0
    8.5076   -0.6942    0.0000 C   0  0  0  0  0  0  0  0  0  0  0  0
    9.6977   -1.6074    0.0000 O   0  0  0  0  0  0  0  0  0  0  0  0
   11.0835   -1.0333    0.0000 C   0  0  0  0  0  0  0  0  0  0  0  0
   12.2735   -1.9465    0.0000 C   0  0  0  0  0  0  0  0  0  0  0  0
   13.6593   -1.3725    0.0000 C   0  0  0  0  0  0  0  0  0  0  0  0
   15.1579   -1.3070    0.0000 C   0  0  0  0  0  0  0  0  0  0  0  0
   13.9840   -2.8369    0.0000 O   0  0  0  0  0  0  0  0  0  0  0  0
   13.8551    0.1147    0.0000 C   0  0  0  0  0  0  0  0  0  0  0  0
   15.2410    0.6887    0.0000 O   0  0  0  0  0  0  0  0  0  0  0  0
   15.4367    2.1759    0.0000 C   0  0  0  0  0  0  0  0  0  0  0  0
   16.8226    2.7499    0.0000 C   0  0  0  0  0  0  0  0  0  0  0  0
   14.2467    3.0890    0.0000 O   0  0  0  0  0  0  0  0  0  0  0  0
   12.6651    1.0279    0.0000 C   0  0  0  0  0  0  0  0  0  0  0  0
   12.8609    2.5150    0.0000 C   0  0  0  0  0  0  0  0  0  0  0  0
   11.2793    0.4538    0.0000 O   0  0  0  0  0  0  0  0  0  0  0  0
    8.7034    0.7929    0.0000 C   0  0  0  0  0  0  0  0  0  0  0  0
   10.0893    1.3670    0.0000 N   0  0  0  0  0  0  0  0  0  0  0  0
   10.2850    2.8541    0.0000 C   0  0  0  0  0  0  0  0  0  0  0  0
   11.4649    0.7689    0.0000 C   0  0  0  0  0  0  0  0  0  0  0  0
    7.5134    1.7061    0.0000 C   0  0  0  0  0  0  0  0  0  0  0  0
    7.7092    3.1933    0.0000 O   0  0  0  0  0  0  0  0  0  0  0  0
  1  2  1  0
  2  3  1  0
  3  4  1  0
  4  5  1  0
  4  6  1  0
  6  7  1  0
  7  8  2  0
  7  9  1  0
  9 10  1  0
 10 11  1  0
 10 12  1  0
 12 13  1  0
 13 14  2  0
 14 15  1  0
 15 16  2  0
 16 17  1  0
 17 18  1  0
 17 19  1  0
 19 20  1  0
 19 21  1  0
 21 22  1  0
 22 23  1  0
 23 24  1  0
 24 25  2  0
 22 26  1  0
 26 27  1  0
 27 28  1  0
 28 29  1  0
 29 30  1  0
 30 31  1  0
 30 32  1  0
 32 33  1  0
 33 34  1  0
 34 35  1  0
 35 36  1  0
 36 37  1  0
 36 38  1  0
 36 39  1  0
 39 40  1  0
 40 41  1  0
 41 42  1  0
 41 43  2  0
 39 44  1  0
 44 45  1  0
 44 46  1  0
 32 47  1  0
 47 48  1  0
 48 49  1  0
 48 50  1  0
 47 51  1  0
 51 52  1  0
 26  3  1  0
 51 28  1  0
 46 34  1  0
M  END
>  <ChEMBL_IDs>  (230) 
nan

>  <target_organism>  (230) 
nan

>  <target_molecule_pref_name>  (230) 
nan

>  <# Known Targets>  (230) 
nan

>  <Known Targets>  (230) 
nan

>  <smiles>  (230) 
COC1C(O)CC(=O)OC(C)C/C=C\C=C/C(O)C(C)CC(CC=O)C1OC1OC(C)C(OC2CC(C)(O)C(OC(C)=O)C(C)O2)C(N(C)C)C1O

$$$$

     RDKit          2D

 52 54  0  0  0  0  0  0  0  0999 V2000
    6.0944   -1.2990    0.0000 C   0  0  0  0  0  0  0  0  0  0  0  0
    5.3444   -0.0000    0.0000 O   0  0  0  0  0  0  0  0  0  0  0  0
    3.8444   -0.0000    0.0000 C   0  0  0  0  0  0  0  0  0  0  0  0
    3.5517   -1.4712    0.0000 C   0  0  0  0  0  0  0  0  0  0  0  0
    4.9376   -2.0452    0.0000 O   0  0  0  0  0  0  0  0  0  0  0  0
    2.7184   -2.7184    0.0000 C   0  0  0  0  0  0  0  0  0  0  0  0
    1.4712   -3.5517    0.0000 C   0  0  0  0  0  0  0  0  0  0  0  0
    2.0452   -4.9376    0.0000 O   0  0  0  0  0  0  0  0  0  0  0  0
   -0.0000   -3.8444    0.0000 O   0  0  0  0  0  0  0  0  0  0  0  0
   -1.4712   -3.5517    0.0000 C   0  0  0  0  0  0  0  0  0  0  0  0
   -2.0452   -4.9376    0.0000 C   0  0  0  0  0  0  0  0  0  0  0  0
   -2.7184   -2.7184    0.0000 C   0  0  0  0  0  0  0  0  0  0  0  0
   -3.5517   -1.4712    0.0000 C   0  0  0  0  0  0  0  0  0  0  0  0
   -3.8444    0.0000    0.0000 C   0  0  0  0  0  0  0  0  0  0  0  0
   -3.5517    1.4712    0.0000 C   0  0  0  0  0  0  0  0  0  0  0  0
   -2.7184    2.7184    0.0000 C   0  0  0  0  0  0  0  0  0  0  0  0
   -1.4712    3.5517    0.0000 C   0  0  0  0  0  0  0  0  0  0  0  0
   -2.0452    4.9376    0.0000 O   0  0  0  0  0  0  0  0  0  0  0  0
   -0.0000    3.8444    0.0000 C   0  0  0  0  0  0  0  0  0  0  0  0
    0.0000    5.3444    0.0000 C   0  0  0  0  0  0  0  0  0  0  0  0
    1.4712    3.5517    0.0000 C   0  0  0  0  0  0  0  0  0  0  0  0
    2.7184    2.7184    0.0000 C   0  0  0  0  0  0  0  0  0  0  0  0
    3.7790    3.7790    0.0000 C   0  0  0  0  0  0  0  0  0  0  0  0
    5.2279    3.3908    0.0000 C   0  0  0  0  0  0  0  0  0  0  0  0
    6.2886    4.4515    0.0000 O   0  0  0  0  0  0  0  0  0  0  0  0
    3.5517    1.4712    0.0000 C   0  0  0  0  0  0  0  0  0  0  0  0
    4.9376    2.0452    0.0000 O   0  0  0  0  0  0  0  0  0  0  0  0
    6.1276    1.1321    0.0000 C   0  0  0  0  0  0  0  0  0  0  0  0
    5.9318   -0.3551    0.0000 O   0  0  0  0  0  0  0  0  0  0  0  0
    7.1218   -1.2682    0.0000 C   0  0  0  0  0  0  0  0  0  0  0  0
    6.9260   -2.7554    0.0000 C   0  0  0  0  0  0  0  0  0  0  0  0
    8.5076   -0.6942    0.0000 C   0  0  0  0  0  0  0  0  0  0  0  0
    9.6977   -1.6074    0.0000 O   0  0  0  0  0  0  0  0  0  0  0  0
   11.0835   -1.0333    0.0000 C   0  0  0  0  0  0  0  0  0  0  0  0
   12.2735   -1.9465    0.0000 C   0  0  0  0  0  0  0  0  0  0  0  0
   13.6593   -1.3725    0.0000 C   0  0  0  0  0  0  0  0  0  0  0  0
   15.1579   -1.3070    0.0000 C   0  0  0  0  0  0  0  0  0  0  0  0
   13.9840   -2.8369    0.0000 O   0  0  0  0  0  0  0  0  0  0  0  0
   13.8551    0.1147    0.0000 C   0  0  0  0  0  0  0  0  0  0  0  0
   15.2410    0.6887    0.0000 O   0  0  0  0  0  0  0  0  0  0  0  0
   15.4367    2.1759    0.0000 C   0  0  0  0  0  0  0  0  0  0  0  0
   16.8226    2.7499    0.0000 C   0  0  0  0  0  0  0  0  0  0  0  0
   14.2467    3.0890    0.0000 O   0  0  0  0  0  0  0  0  0  0  0  0
   12.6651    1.0279    0.0000 C   0  0  0  0  0  0  0  0  0  0  0  0
   12.8609    2.5150    0.0000 C   0  0  0  0  0  0  0  0  0  0  0  0
   11.2793    0.4538    0.0000 O   0  0  0  0  0  0  0  0  0  0  0  0
    8.7034    0.7929    0.0000 C   0  0  0  0  0  0  0  0  0  0  0  0
   10.0893    1.3670    0.0000 N   0  0  0  0  0  0  0  0  0  0  0  0
   10.2850    2.8541    0.0000 C   0  0  0  0  0  0  0  0  0  0  0  0
   11.4649    0.7689    0.0000 C   0  0  0  0  0  0  0  0  0  0  0  0
    7.5134    1.7061    0.0000 C   0  0  0  0  0  0  0  0  0  0  0  0
    7.7092    3.1933    0.0000 O   0  0  0  0  0  0  0  0  0  0  0  0
  1  2  1  0
  2  3  1  0
  3  4  1  0
  4  5  1  0
  4  6  1  0
  6  7  1  0
  7  8  2  0
  7  9  1  0
  9 10  1  0
 10 11  1  0
 10 12  1  0
 12 13  1  0
 13 14  2  0
 14 15  1  0
 15 16  2  0
 16 17  1  0
 17 18  1  0
 17 19  1  0
 19 20  1  0
 19 21  1  0
 21 22  1  0
 22 23  1  0
 23 24  1  0
 24 25  2  0
 22 26  1  0
 26 27  1  0
 27 28  1  0
 28 29  1  0
 29 30  1  0
 30 31  1  0
 30 32  1  0
 32 33  1  0
 33 34  1  0
 34 35  1  0
 35 36  1  0
 36 37  1  0
 36 38  1  0
 36 39  1  0
 39 40  1  0
 40 41  1  0
 41 42  1  0
 41 43  2  0
 39 44  1  0
 44 45  1  0
 44 46  1  0
 32 47  1  0
 47 48  1  0
 48 49  1  0
 48 50  1  0
 47 51  1  0
 51 52  1  0
 26  3  1  0
 51 28  1  0
 46 34  1  0
M  END
>  <ChEMBL_IDs>  (231) 
nan

>  <target_organism>  (231) 
nan

>  <target_molecule_pref_name>  (231) 
nan

>  <# Known Targets>  (231) 
nan

>  <Known Targets>  (231) 
nan

>  <smiles>  (231) 
COC1C(O)CC(=O)OC(C)C/C=C\C=C/C(O)C(C)CC(CC=O)C1OC1OC(C)C(OC2CC(C)(O)C(OC(C)=O)C(C)O2)C(N(C)C)C1O

$$$$

     RDKit          2D

 49 51  0  0  0  0  0  0  0  0999 V2000
    6.0944   -1.2990    0.0000 C   0  0  0  0  0  0  0  0  0  0  0  0
    5.3444    0.0000    0.0000 C   0  0  0  0  0  0  0  0  0  0  0  0
    3.8444    0.0000    0.0000 C   0  0  0  0  0  0  0  0  0  0  0  0
    3.5517   -1.4712    0.0000 O   0  0  0  0  0  0  0  0  0  0  0  0
    2.7184   -2.7184    0.0000 C   0  0  0  0  0  0  0  0  0  0  0  0
    3.7790   -3.7790    0.0000 O   0  0  0  0  0  0  0  0  0  0  0  0
    1.4712   -3.5517    0.0000 C   0  0  0  0  0  0  0  0  0  0  0  0
   -0.0000   -3.8444    0.0000 C   0  0  0  0  0  0  0  0  0  0  0  0
   -1.4712   -3.5517    0.0000 C   0  0  0  0  0  0  0  0  0  0  0  0
   -1.6507   -4.7534    0.0000 C   0  0  0  0  0  0  0  0  0  0  0  0
   -2.7184   -2.7184    0.0000 C   0  0  0  0  0  0  0  0  0  0  0  0
   -3.7790   -3.7790    0.0000 O   0  0  0  0  0  0  0  0  0  0  0  0
   -3.3908   -5.2279    0.0000 C   0  0  0  0  0  0  0  0  0  0  0  0
   -1.9419   -5.6162    0.0000 O   0  0  0  0  0  0  0  0  0  0  0  0
   -1.5537   -7.0650    0.0000 C   0  0  0  0  0  0  0  0  0  0  0  0
   -0.1048   -7.4533    0.0000 C   0  0  0  0  0  0  0  0  0  0  0  0
   -2.6144   -8.1257    0.0000 C   0  0  0  0  0  0  0  0  0  0  0  0
   -4.0632   -7.7375    0.0000 C   0  0  0  0  0  0  0  0  0  0  0  0
   -5.1239   -8.7981    0.0000 N   0  0  0  0  0  0  0  0  0  0  0  0
   -4.7357  -10.2470    0.0000 C   0  0  0  0  0  0  0  0  0  0  0  0
   -6.5728   -8.4099    0.0000 C   0  0  0  0  0  0  0  0  0  0  0  0
   -4.4515   -6.2886    0.0000 C   0  0  0  0  0  0  0  0  0  0  0  0
   -5.9004   -5.9004    0.0000 O   0  0  0  0  0  0  0  0  0  0  0  0
   -3.5517   -1.4712    0.0000 C   0  0  0  0  0  0  0  0  0  0  0  0
   -4.9376   -2.0452    0.0000 C   0  0  0  0  0  0  0  0  0  0  0  0
   -3.8444    0.0000    0.0000 C   0  0  0  0  0  0  0  0  0  0  0  0
   -3.5517    1.4712    0.0000 C   0  0  0  0  0  0  0  0  0  0  0  0
   -4.9376    2.0452    0.0000 C   0  0  0  0  0  0  0  0  0  0  0  0
   -2.7184    2.7184    0.0000 C   0  0  0  0  0  0  0  0  0  0  0  0
   -3.7790    3.7790    0.0000 O   0  0  0  0  0  0  0  0  0  0  0  0
   -1.4712    3.5517    0.0000 C   0  0  0  0  0  0  0  0  0  0  0  0
    0.0000    3.8444    0.0000 C   0  0  0  0  0  0  0  0  0  0  0  0
    1.4712    3.5517    0.0000 C   0  0  0  0  0  0  0  0  0  0  0  0
    2.7184    2.7184    0.0000 C   0  0  0  0  0  0  0  0  0  0  0  0
    3.5517    1.4712    0.0000 C   0  0  0  0  0  0  0  0  0  0  0  0
    4.9376    2.0452    0.0000 C   0  0  0  0  0  0  0  0  0  0  0  0
    6.1276    1.1321    0.0000 O   0  0  0  0  0  0  0  0  0  0  0  0
    7.5134    1.7061    0.0000 C   0  0  0  0  0  0  0  0  0  0  0  0
    8.7034    0.7929    0.0000 O   0  0  0  0  0  0  0  0  0  0  0  0
   10.0893    1.3670    0.0000 C   0  0  0  0  0  0  0  0  0  0  0  0
   11.2793    0.4538    0.0000 C   0  0  0  0  0  0  0  0  0  0  0  0
   10.2850    2.8541    0.0000 C   0  0  0  0  0  0  0  0  0  0  0  0
   11.6709    3.4282    0.0000 O   0  0  0  0  0  0  0  0  0  0  0  0
    9.0950    3.7673    0.0000 C   0  0  0  0  0  0  0  0  0  0  0  0
    9.2908    5.2544    0.0000 O   0  0  0  0  0  0  0  0  0  0  0  0
    8.1008    6.1676    0.0000 C   0  0  0  0  0  0  0  0  0  0  0  0
    7.7092    3.1933    0.0000 C   0  0  0  0  0  0  0  0  0  0  0  0
    6.5192    4.1064    0.0000 O   0  0  0  0  0  0  0  0  0  0  0  0
    6.7150    5.5936    0.0000 C   0  0  0  0  0  0  0  0  0  0  0  0
  1  2  1  0
  2  3  1  0
  3  4  1  0
  4  5  1  0
  5  6  2  0
  5  7  1  0
  7  8  2  0
  8  9  1  0
  9 10  1  0
  9 11  1  0
 11 12  1  0
 12 13  1  0
 13 14  1  0
 14 15  1  0
 15 16  1  0
 15 17  1  0
 17 18  1  0
 18 19  1  0
 19 20  1  0
 19 21  1  0
 18 22  1  0
 22 23  1  0
 11 24  1  0
 24 25  1  0
 24 26  1  0
 26 27  1  0
 27 28  1  0
 27 29  1  0
 29 30  1  0
 29 31  1  0
 31 32  2  0
 32 33  1  0
 33 34  2  0
 34 35  1  0
 35 36  1  0
 36 37  1  0
 37 38  1  0
 38 39  1  0
 39 40  1  0
 40 41  1  0
 40 42  1  0
 42 43  1  0
 42 44  1  0
 44 45  1  0
 45 46  1  0
 44 47  1  0
 47 48  1  0
 48 49  1  0
 35  3  1  0
 47 38  1  0
 22 13  1  0
M  END
>  <ChEMBL_IDs>  (232) 
nan

>  <target_organism>  (232) 
nan

>  <target_molecule_pref_name>  (232) 
nan

>  <# Known Targets>  (232) 
nan

>  <Known Targets>  (232) 
nan

>  <smiles>  (232) 
CCC1OC(=O)/C=C\C(C)C(OC2OC(C)CC(N(C)C)C2O)C(C)CC(C)C(O)/C=C\C=C/C1COC1OC(C)C(O)C(OC)C1OC

$$$$

     RDKit          2D

 50 52  0  0  0  0  0  0  0  0999 V2000
    6.0944   -1.2990    0.0000 C   0  0  0  0  0  0  0  0  0  0  0  0
    5.3444    0.0000    0.0000 C   0  0  0  0  0  0  0  0  0  0  0  0
    3.8444    0.0000    0.0000 C   0  0  0  0  0  0  0  0  0  0  0  0
    3.5517   -1.4712    0.0000 O   0  0  0  0  0  0  0  0  0  0  0  0
    2.7184   -2.7184    0.0000 C   0  0  0  0  0  0  0  0  0  0  0  0
    3.7790   -3.7790    0.0000 O   0  0  0  0  0  0  0  0  0  0  0  0
    1.4712   -3.5517    0.0000 C   0  0  0  0  0  0  0  0  0  0  0  0
   -0.0000   -3.8444    0.0000 C   0  0  0  0  0  0  0  0  0  0  0  0
   -1.4712   -3.5517    0.0000 C   0  0  0  0  0  0  0  0  0  0  0  0
   -1.6507   -4.7534    0.0000 C   0  0  0  0  0  0  0  0  0  0  0  0
   -2.7184   -2.7184    0.0000 C   0  0  0  0  0  0  0  0  0  0  0  0
   -3.7790   -3.7790    0.0000 O   0  0  0  0  0  0  0  0  0  0  0  0
   -3.3908   -5.2279    0.0000 C   0  0  0  0  0  0  0  0  0  0  0  0
   -1.9419   -5.6162    0.0000 O   0  0  0  0  0  0  0  0  0  0  0  0
   -1.5537   -7.0650    0.0000 C   0  0  0  0  0  0  0  0  0  0  0  0
   -0.1048   -7.4533    0.0000 C   0  0  0  0  0  0  0  0  0  0  0  0
   -2.6144   -8.1257    0.0000 C   0  0  0  0  0  0  0  0  0  0  0  0
   -2.2261   -9.5746    0.0000 O   0  0  0  0  0  0  0  0  0  0  0  0
   -4.0632   -7.7375    0.0000 C   0  0  0  0  0  0  0  0  0  0  0  0
   -5.1239   -8.7981    0.0000 N   0  0  0  0  0  0  0  0  0  0  0  0
   -6.5728   -8.4099    0.0000 C   0  0  0  0  0  0  0  0  0  0  0  0
   -4.7357  -10.2470    0.0000 C   0  0  0  0  0  0  0  0  0  0  0  0
   -4.4515   -6.2886    0.0000 C   0  0  0  0  0  0  0  0  0  0  0  0
   -5.9004   -5.9004    0.0000 O   0  0  0  0  0  0  0  0  0  0  0  0
   -3.5517   -1.4712    0.0000 C   0  0  0  0  0  0  0  0  0  0  0  0
   -4.9376   -2.0452    0.0000 C   0  0  0  0  0  0  0  0  0  0  0  0
   -3.8444    0.0000    0.0000 C   0  0  0  0  0  0  0  0  0  0  0  0
   -3.5517    1.4712    0.0000 C   0  0  0  0  0  0  0  0  0  0  0  0
   -4.9376    2.0452    0.0000 C   0  0  0  0  0  0  0  0  0  0  0  0
   -2.7184    2.7184    0.0000 C   0  0  0  0  0  0  0  0  0  0  0  0
   -3.7790    3.7790    0.0000 O   0  0  0  0  0  0  0  0  0  0  0  0
   -1.4712    3.5517    0.0000 C   0  0  0  0  0  0  0  0  0  0  0  0
    0.0000    3.8444    0.0000 C   0  0  0  0  0  0  0  0  0  0  0  0
    1.4712    3.5517    0.0000 C   0  0  0  0  0  0  0  0  0  0  0  0
    2.7184    2.7184    0.0000 C   0  0  0  0  0  0  0  0  0  0  0  0
    3.5517    1.4712    0.0000 C   0  0  0  0  0  0  0  0  0  0  0  0
    4.9376    2.0452    0.0000 C   0  0  0  0  0  0  0  0  0  0  0  0
    6.1276    1.1321    0.0000 O   0  0  0  0  0  0  0  0  0  0  0  0
    7.5134    1.7061    0.0000 C   0  0  0  0  0  0  0  0  0  0  0  0
    8.7034    0.7929    0.0000 O   0  0  0  0  0  0  0  0  0  0  0  0
   10.0893    1.3670    0.0000 C   0  0  0  0  0  0  0  0  0  0  0  0
   11.2793    0.4538    0.0000 C   0  0  0  0  0  0  0  0  0  0  0  0
   10.2850    2.8541    0.0000 C   0  0  0  0  0  0  0  0  0  0  0  0
   11.6709    3.4282    0.0000 O   0  0  0  0  0  0  0  0  0  0  0  0
    9.0950    3.7673    0.0000 C   0  0  0  0  0  0  0  0  0  0  0  0
    9.2908    5.2544    0.0000 O   0  0  0  0  0  0  0  0  0  0  0  0
    8.1008    6.1676    0.0000 C   0  0  0  0  0  0  0  0  0  0  0  0
    7.7092    3.1933    0.0000 C   0  0  0  0  0  0  0  0  0  0  0  0
    6.5192    4.1064    0.0000 O   0  0  0  0  0  0  0  0  0  0  0  0
    6.7150    5.5936    0.0000 C   0  0  0  0  0  0  0  0  0  0  0  0
  1  2  1  0
  2  3  1  0
  3  4  1  0
  4  5  1  0
  5  6  2  0
  5  7  1  0
  7  8  2  0
  8  9  1  0
  9 10  1  0
  9 11  1  0
 11 12  1  0
 12 13  1  0
 13 14  1  0
 14 15  1  0
 15 16  1  0
 15 17  1  0
 17 18  1  0
 17 19  1  0
 19 20  1  0
 20 21  1  0
 20 22  1  0
 19 23  1  0
 23 24  1  0
 11 25  1  0
 25 26  1  0
 25 27  1  0
 27 28  1  0
 28 29  1  0
 28 30  1  0
 30 31  2  0
 30 32  1  0
 32 33  1  0
 33 34  1  0
 34 35  2  0
 35 36  1  0
 36 37  1  0
 37 38  1  0
 38 39  1  0
 39 40  1  0
 40 41  1  0
 41 42  1  0
 41 43  1  0
 43 44  1  0
 43 45  1  0
 45 46  1  0
 46 47  1  0
 45 48  1  0
 48 49  1  0
 49 50  1  0
 36  3  1  0
 48 39  1  0
 23 13  1  0
M  END
>  <ChEMBL_IDs>  (233) 
nan

>  <target_organism>  (233) 
nan

>  <target_molecule_pref_name>  (233) 
nan

>  <# Known Targets>  (233) 
nan

>  <Known Targets>  (233) 
nan

>  <smiles>  (233) 
CCC1OC(=O)/C=C\C(C)C(OC2OC(C)C(O)C(N(C)C)C2O)C(C)CC(C)C(=O)CC/C=C\C1COC1OC(C)C(O)C(OC)C1OC

$$$$

     RDKit          2D

 50 52  0  0  0  0  0  0  0  0999 V2000
    6.0944   -1.2990    0.0000 C   0  0  0  0  0  0  0  0  0  0  0  0
    5.3444    0.0000    0.0000 C   0  0  0  0  0  0  0  0  0  0  0  0
    3.8444    0.0000    0.0000 C   0  0  0  0  0  0  0  0  0  0  0  0
    3.5517   -1.4712    0.0000 O   0  0  0  0  0  0  0  0  0  0  0  0
    2.7184   -2.7184    0.0000 C   0  0  0  0  0  0  0  0  0  0  0  0
    3.7790   -3.7790    0.0000 O   0  0  0  0  0  0  0  0  0  0  0  0
    1.4712   -3.5517    0.0000 C   0  0  0  0  0  0  0  0  0  0  0  0
   -0.0000   -3.8444    0.0000 C   0  0  0  0  0  0  0  0  0  0  0  0
   -0.0000   -5.3444    0.0000 O   0  0  0  0  0  0  0  0  0  0  0  0
   -1.4712   -3.5517    0.0000 C   0  0  0  0  0  0  0  0  0  0  0  0
   -2.0452   -4.9376    0.0000 C   0  0  0  0  0  0  0  0  0  0  0  0
   -2.7184   -2.7184    0.0000 C   0  0  0  0  0  0  0  0  0  0  0  0
   -3.7790   -3.7790    0.0000 O   0  0  0  0  0  0  0  0  0  0  0  0
   -5.2279   -3.3908    0.0000 C   0  0  0  0  0  0  0  0  0  0  0  0
   -5.6162   -1.9419    0.0000 O   0  0  0  0  0  0  0  0  0  0  0  0
   -7.0650   -1.5537    0.0000 C   0  0  0  0  0  0  0  0  0  0  0  0
   -7.4533   -0.1048    0.0000 C   0  0  0  0  0  0  0  0  0  0  0  0
   -8.1257   -2.6144    0.0000 C   0  0  0  0  0  0  0  0  0  0  0  0
   -9.5746   -2.2261    0.0000 O   0  0  0  0  0  0  0  0  0  0  0  0
   -9.9628   -0.7772    0.0000 C   0  0  0  0  0  0  0  0  0  0  0  0
  -11.4117   -0.3890    0.0000 C   0  0  0  0  0  0  0  0  0  0  0  0
  -11.7999    1.0599    0.0000 C   0  0  0  0  0  0  0  0  0  0  0  0
  -12.6603    2.2886    0.0000 C   0  0  0  0  0  0  0  0  0  0  0  0
  -13.1594    0.4260    0.0000 O   0  0  0  0  0  0  0  0  0  0  0  0
  -10.7393    2.1205    0.0000 C   0  0  0  0  0  0  0  0  0  0  0  0
  -11.1275    3.5694    0.0000 O   0  0  0  0  0  0  0  0  0  0  0  0
   -9.2904    1.7323    0.0000 C   0  0  0  0  0  0  0  0  0  0  0  0
   -8.2297    2.7930    0.0000 C   0  0  0  0  0  0  0  0  0  0  0  0
   -8.9022    0.2834    0.0000 O   0  0  0  0  0  0  0  0  0  0  0  0
   -7.7375   -4.0632    0.0000 C   0  0  0  0  0  0  0  0  0  0  0  0
   -8.7981   -5.1239    0.0000 N   0  0  0  0  0  0  0  0  0  0  0  0
   -8.4099   -6.5728    0.0000 C   0  0  0  0  0  0  0  0  0  0  0  0
  -10.2470   -4.7357    0.0000 C   0  0  0  0  0  0  0  0  0  0  0  0
   -6.2886   -4.4515    0.0000 C   0  0  0  0  0  0  0  0  0  0  0  0
   -5.9004   -5.9004    0.0000 O   0  0  0  0  0  0  0  0  0  0  0  0
   -3.5517   -1.4712    0.0000 C   0  0  0  0  0  0  0  0  0  0  0  0
   -4.7534   -1.6507    0.0000 C   0  0  0  0  0  0  0  0  0  0  0  0
   -3.8444    0.0000    0.0000 C   0  0  0  0  0  0  0  0  0  0  0  0
   -3.5517    1.4712    0.0000 C   0  0  0  0  0  0  0  0  0  0  0  0
   -4.9376    2.0452    0.0000 C   0  0  0  0  0  0  0  0  0  0  0  0
   -2.7184    2.7184    0.0000 C   0  0  0  0  0  0  0  0  0  0  0  0
   -3.7790    3.7790    0.0000 O   0  0  0  0  0  0  0  0  0  0  0  0
   -1.4712    3.5517    0.0000 C   0  0  0  0  0  0  0  0  0  0  0  0
    0.0000    3.8444    0.0000 C   0  0  0  0  0  0  0  0  0  0  0  0
    1.4712    3.5517    0.0000 C   0  0  0  0  0  0  0  0  0  0  0  0
    2.0452    4.9376    0.0000 C   0  0  0  0  0  0  0  0  0  0  0  0
    2.7184    2.7184    0.0000 C   0  0  0  0  0  0  0  0  0  0  0  0
    3.5517    1.4712    0.0000 C   0  0  0  0  0  0  0  0  0  0  0  0
    4.9376    2.0452    0.0000 C   0  0  0  0  0  0  0  0  0  0  0  0
    6.1276    1.1321    0.0000 O   0  0  0  0  0  0  0  0  0  0  0  0
  1  2  1  0
  3  2  1  1
  3  4  1  0
  4  5  1  0
  5  6  2  0
  5  7  1  0
  7  8  1  0
  8  9  1  1
  8 10  1  0
 10 11  1  6
 10 12  1  0
 12 13  1  1
 14 13  1  1
 14 15  1  0
 15 16  1  0
 16 17  1  1
 16 18  1  0
 18 19  1  6
 20 19  1  1
 20 21  1  0
 21 22  1  0
 22 23  1  6
 22 24  1  0
 22 25  1  0
 25 26  1  1
 25 27  1  0
 27 28  1  6
 27 29  1  0
 18 30  1  0
 30 31  1  1
 31 32  1  0
 31 33  1  0
 30 34  1  0
 34 35  1  6
 12 36  1  0
 36 37  1  1
 36 38  1  0
 38 39  1  0
 39 40  1  1
 39 41  1  0
 41 42  2  0
 41 43  1  0
 43 44  2  0
 44 45  1  0
 45 46  1  0
 45 47  2  0
 47 48  1  0
 48 49  1  6
 49 50  1  0
 48  3  1  0
 34 14  1  0
 29 20  1  0
M  END
>  <ChEMBL_IDs>  (234) 
CHEMBL427567

>  <target_organism>  (234) 
Rattus norvegicus

>  <target_molecule_pref_name>  (234) 
nan

>  <# Known Targets>  (234) 
nan

>  <Known Targets>  (234) 
nan

>  <smiles>  (234) 
CC[C@H]1OC(=O)C[C@@H](O)[C@H](C)[C@@H](O[C@@H]2O[C@H](C)[C@@H](O[C@H]3C[C@@](C)(O)[C@@H](O)[C@H](C)O3)[C@H](N(C)C)[C@H]2O)[C@@H](C)C[C@@H](C)C(=O)/C=C/C(C)=C/[C@@H]1CO

$$$$

     RDKit          2D

 51 53  0  0  0  0  0  0  0  0999 V2000
   13.8398   -9.9509    0.0000 C   0  0  0  0  0  0  0  0  0  0  0  0
   12.4540   -9.3768    0.0000 C   0  0  0  0  0  0  0  0  0  0  0  0
   11.2640  -10.2900    0.0000 O   0  0  0  0  0  0  0  0  0  0  0  0
    9.8782   -9.7159    0.0000 C   0  0  0  0  0  0  0  0  0  0  0  0
    9.6824   -8.2288    0.0000 C   0  0  0  0  0  0  0  0  0  0  0  0
   10.8724   -7.3156    0.0000 C   0  0  0  0  0  0  0  0  0  0  0  0
    8.2966   -7.6548    0.0000 O   0  0  0  0  0  0  0  0  0  0  0  0
    7.1065   -8.5679    0.0000 C   0  0  0  0  0  0  0  0  0  0  0  0
    5.7207   -7.9939    0.0000 O   0  0  0  0  0  0  0  0  0  0  0  0
    5.5249   -6.5067    0.0000 C   0  0  0  0  0  0  0  0  0  0  0  0
    4.1391   -5.9327    0.0000 C   0  0  0  0  0  0  0  0  0  0  0  0
    2.9491   -6.8458    0.0000 C   0  0  0  0  0  0  0  0  0  0  0  0
    3.9433   -4.4455    0.0000 O   0  0  0  0  0  0  0  0  0  0  0  0
    5.1333   -3.5324    0.0000 C   0  0  0  0  0  0  0  0  0  0  0  0
    4.9376   -2.0452    0.0000 O   0  0  0  0  0  0  0  0  0  0  0  0
    3.5517   -1.4712    0.0000 C   0  0  0  0  0  0  0  0  0  0  0  0
    3.8444    0.0000    0.0000 C   0  0  0  0  0  0  0  0  0  0  0  0
    5.3444    0.0000    0.0000 C   0  0  0  0  0  0  0  0  0  0  0  0
    6.0944   -1.2990    0.0000 C   0  0  0  0  0  0  0  0  0  0  0  0
    7.5944   -1.2990    0.0000 O   0  0  0  0  0  0  0  0  0  0  0  0
    3.5517    1.4712    0.0000 C   0  0  0  0  0  0  0  0  0  0  0  0
    2.7184    2.7184    0.0000 C   0  0  0  0  0  0  0  0  0  0  0  0
    3.7790    3.7790    0.0000 C   0  0  0  0  0  0  0  0  0  0  0  0
    1.4712    3.5517    0.0000 C   0  0  0  0  0  0  0  0  0  0  0  0
    2.0452    4.9376    0.0000 O   0  0  0  0  0  0  0  0  0  0  0  0
    0.0000    3.8444    0.0000 C   0  0  0  0  0  0  0  0  0  0  0  0
   -1.4712    3.5517    0.0000 C   0  0  0  0  0  0  0  0  0  0  0  0
   -2.7184    2.7184    0.0000 C   0  0  0  0  0  0  0  0  0  0  0  0
   -3.5517    1.4712    0.0000 C   0  0  0  0  0  0  0  0  0  0  0  0
   -3.8444    0.0000    0.0000 C   0  0  0  0  0  0  0  0  0  0  0  0
   -3.5517   -1.4712    0.0000 C   0  0  0  0  0  0  0  0  0  0  0  0
   -4.9376   -2.0452    0.0000 C   0  0  0  0  0  0  0  0  0  0  0  0
   -2.7184   -2.7184    0.0000 O   0  0  0  0  0  0  0  0  0  0  0  0
   -1.4712   -3.5517    0.0000 C   0  0  0  0  0  0  0  0  0  0  0  0
   -2.0452   -4.9376    0.0000 O   0  0  0  0  0  0  0  0  0  0  0  0
   -0.0000   -3.8444    0.0000 C   0  0  0  0  0  0  0  0  0  0  0  0
    1.4712   -3.5517    0.0000 C   0  0  0  0  0  0  0  0  0  0  0  0
    2.0452   -4.9376    0.0000 O   0  0  0  0  0  0  0  0  0  0  0  0
    2.7184   -2.7184    0.0000 C   0  0  0  0  0  0  0  0  0  0  0  0
    3.7790   -3.7790    0.0000 O   0  0  0  0  0  0  0  0  0  0  0  0
    3.3908   -5.2279    0.0000 C   0  0  0  0  0  0  0  0  0  0  0  0
    6.5192   -4.1064    0.0000 C   0  0  0  0  0  0  0  0  0  0  0  0
    7.7092   -3.1933    0.0000 O   0  0  0  0  0  0  0  0  0  0  0  0
    6.7150   -5.5936    0.0000 C   0  0  0  0  0  0  0  0  0  0  0  0
    8.1008   -6.1676    0.0000 N   0  0  0  0  0  0  0  0  0  0  0  0
    8.6506   -7.5632    0.0000 C   0  0  0  0  0  0  0  0  0  0  0  0
    9.2908   -5.2544    0.0000 C   0  0  0  0  0  0  0  0  0  0  0  0
    7.3023  -10.0551    0.0000 C   0  0  0  0  0  0  0  0  0  0  0  0
    8.6881  -10.6291    0.0000 C   0  0  0  0  0  0  0  0  0  0  0  0
    7.8822  -11.8942    0.0000 C   0  0  0  0  0  0  0  0  0  0  0  0
    9.7941  -11.6425    0.0000 O   0  0  0  0  0  0  0  0  0  0  0  0
  1  2  1  0
  2  3  1  0
  3  4  1  0
  4  5  1  0
  5  6  1  0
  5  7  1  0
  7  8  1  0
  8  9  1  0
  9 10  1  0
 10 11  1  0
 11 12  1  0
 11 13  1  0
 13 14  1  0
 14 15  1  0
 15 16  1  0
 16 17  1  0
 17 18  1  0
 18 19  1  0
 19 20  2  0
 17 21  1  0
 21 22  1  0
 22 23  1  0
 22 24  1  0
 24 25  1  0
 24 26  1  0
 26 27  2  0
 27 28  1  0
 28 29  2  0
 29 30  1  0
 30 31  1  0
 31 32  1  0
 31 33  1  0
 33 34  1  0
 34 35  2  0
 34 36  1  0
 36 37  1  0
 37 38  1  0
 37 39  1  0
 39 40  1  0
 40 41  1  0
 14 42  1  0
 42 43  1  0
 42 44  1  0
 44 45  1  0
 45 46  1  0
 45 47  1  0
  8 48  1  0
 48 49  1  0
 49 50  1  0
 49 51  1  0
 49  4  1  0
 44 10  1  0
 39 16  1  0
M  END
>  <ChEMBL_IDs>  (235) 
nan

>  <target_organism>  (235) 
nan

>  <target_molecule_pref_name>  (235) 
nan

>  <# Known Targets>  (235) 
nan

>  <Known Targets>  (235) 
nan

>  <smiles>  (235) 
CCOC1C(C)OC(OC2C(C)OC(OC3C(CC=O)CC(C)C(O)/C=C\C=C/CC(C)OC(=O)CC(O)C3OC)C(O)C2N(C)C)CC1(C)O

$$$$

     RDKit          2D

 52 54  0  0  0  0  0  0  0  0999 V2000
    5.6205   -1.2990    0.0000 C   0  0  0  0  0  0  0  0  0  0  0  0
    4.8705    0.0000    0.0000 C   0  0  0  0  0  0  0  0  0  0  0  0
    3.3705    0.0000    0.0000 C   0  0  0  0  0  0  0  0  0  0  0  0
    3.0367   -1.4624    0.0000 O   0  0  0  0  0  0  0  0  0  0  0  0
    2.1015   -2.6351    0.0000 C   0  0  0  0  0  0  0  0  0  0  0  0
    3.0367   -3.8079    0.0000 O   0  0  0  0  0  0  0  0  0  0  0  0
    0.7500   -3.2860    0.0000 C   0  0  0  0  0  0  0  0  0  0  0  0
    1.3600   -4.4903    0.0000 C   0  0  0  0  0  0  0  0  0  0  0  0
   -0.7500   -3.2860    0.0000 C   0  0  0  0  0  0  0  0  0  0  0  0
   -1.0838   -4.7484    0.0000 O   0  0  0  0  0  0  0  0  0  0  0  0
    0.0158   -5.7686    0.0000 C   0  0  0  0  0  0  0  0  0  0  0  0
   -0.3180   -7.2310    0.0000 C   0  0  0  0  0  0  0  0  0  0  0  0
    0.7816   -8.2513    0.0000 C   0  0  0  0  0  0  0  0  0  0  0  0
    1.4659   -9.5861    0.0000 C   0  0  0  0  0  0  0  0  0  0  0  0
   -0.4141   -9.1570    0.0000 O   0  0  0  0  0  0  0  0  0  0  0  0
   -0.2276  -10.6453    0.0000 C   0  0  0  0  0  0  0  0  0  0  0  0
    2.2150   -7.8091    0.0000 C   0  0  0  0  0  0  0  0  0  0  0  0
    3.3145   -8.8294    0.0000 O   0  0  0  0  0  0  0  0  0  0  0  0
    2.5487   -6.3467    0.0000 C   0  0  0  0  0  0  0  0  0  0  0  0
    3.9821   -5.9046    0.0000 C   0  0  0  0  0  0  0  0  0  0  0  0
    1.4492   -5.3265    0.0000 O   0  0  0  0  0  0  0  0  0  0  0  0
   -2.1015   -2.6351    0.0000 C   0  0  0  0  0  0  0  0  0  0  0  0
   -3.0367   -3.8079    0.0000 C   0  0  0  0  0  0  0  0  0  0  0  0
   -3.0367   -1.4624    0.0000 C   0  0  0  0  0  0  0  0  0  0  0  0
   -4.3881   -2.1132    0.0000 O   0  0  0  0  0  0  0  0  0  0  0  0
   -5.6275   -1.2682    0.0000 C   0  0  0  0  0  0  0  0  0  0  0  0
   -5.5154    0.2276    0.0000 O   0  0  0  0  0  0  0  0  0  0  0  0
   -6.7548    1.0725    0.0000 C   0  0  0  0  0  0  0  0  0  0  0  0
   -6.6427    2.5684    0.0000 C   0  0  0  0  0  0  0  0  0  0  0  0
   -8.1062    0.4217    0.0000 C   0  0  0  0  0  0  0  0  0  0  0  0
   -8.2183   -1.0741    0.0000 C   0  0  0  0  0  0  0  0  0  0  0  0
   -9.5698   -1.7249    0.0000 N   0  0  0  0  0  0  0  0  0  0  0  0
  -10.8091   -0.8799    0.0000 C   0  0  0  0  0  0  0  0  0  0  0  0
   -9.6819   -3.2207    0.0000 C   0  0  0  0  0  0  0  0  0  0  0  0
   -6.9790   -1.9191    0.0000 C   0  0  0  0  0  0  0  0  0  0  0  0
   -7.0910   -3.4149    0.0000 O   0  0  0  0  0  0  0  0  0  0  0  0
   -3.3705    0.0000    0.0000 C   0  0  0  0  0  0  0  0  0  0  0  0
   -4.6098   -0.8450    0.0000 C   0  0  0  0  0  0  0  0  0  0  0  0
   -4.6098    0.8450    0.0000 O   0  0  0  0  0  0  0  0  0  0  0  0
   -3.0367    1.4624    0.0000 C   0  0  0  0  0  0  0  0  0  0  0  0
   -2.1015    2.6351    0.0000 C   0  0  0  0  0  0  0  0  0  0  0  0
   -3.5348    3.0773    0.0000 C   0  0  0  0  0  0  0  0  0  0  0  0
   -2.2135    4.1309    0.0000 F   0  0  0  0  0  0  0  0  0  0  0  0
   -0.7500    3.2860    0.0000 C   0  0  0  0  0  0  0  0  0  0  0  0
   -1.0838    4.7484    0.0000 O   0  0  0  0  0  0  0  0  0  0  0  0
    0.7500    3.2860    0.0000 C   0  0  0  0  0  0  0  0  0  0  0  0
    1.0838    4.7484    0.0000 C   0  0  0  0  0  0  0  0  0  0  0  0
    2.1015    2.6351    0.0000 C   0  0  0  0  0  0  0  0  0  0  0  0
    3.0367    3.8079    0.0000 O   0  0  0  0  0  0  0  0  0  0  0  0
    3.0367    1.4624    0.0000 C   0  0  0  0  0  0  0  0  0  0  0  0
    3.7867    2.7614    0.0000 C   0  0  0  0  0  0  0  0  0  0  0  0
    4.5199    1.2388    0.0000 O   0  0  0  0  0  0  0  0  0  0  0  0
  1  2  1  0
  3  2  1  1
  3  4  1  0
  4  5  1  0
  5  6  2  0
  5  7  1  0
  7  8  1  6
  7  9  1  0
  9 10  1  1
 11 10  1  6
 11 12  1  0
 12 13  1  0
 13 14  1  1
 13 15  1  0
 15 16  1  0
 13 17  1  0
 17 18  1  6
 17 19  1  0
 19 20  1  1
 19 21  1  0
  9 22  1  0
 22 23  1  6
 22 24  1  0
 24 25  1  1
 26 25  1  1
 26 27  1  0
 27 28  1  0
 28 29  1  1
 28 30  1  0
 30 31  1  0
 31 32  1  1
 32 33  1  0
 32 34  1  0
 31 35  1  0
 35 36  1  6
 24 37  1  0
 37 38  1  1
 37 39  1  0
 37 40  1  0
 40 41  1  0
 41 42  1  1
 41 43  1  0
 41 44  1  0
 44 45  2  0
 44 46  1  0
 46 47  1  6
 46 48  1  0
 48 49  1  1
 48 50  1  0
 50 51  1  1
 50 52  1  0
 50  3  1  0
 21 11  1  0
 35 26  1  0
M  END
>  <ChEMBL_IDs>  (236) 
CHEMBL2106403

>  <target_organism>  (236) 
Plasmodium falciparum

>  <target_molecule_pref_name>  (236) 
nan

>  <# Known Targets>  (236) 
nan

>  <Known Targets>  (236) 
nan

>  <smiles>  (236) 
CC[C@H]1OC(=O)[C@H](C)[C@@H](O[C@H]2C[C@@](C)(OC)[C@@H](O)[C@H](C)O2)[C@H](C)[C@@H](O[C@@H]2O[C@H](C)C[C@H](N(C)C)[C@H]2O)[C@](C)(O)C[C@](C)(F)C(=O)[C@H](C)[C@@H](O)[C@]1(C)O

$$$$

     RDKit          2D

 52 54  0  0  0  0  0  0  0  0999 V2000
    5.6205   -1.2990    0.0000 C   0  0  0  0  0  0  0  0  0  0  0  0
    4.8705    0.0000    0.0000 C   0  0  0  0  0  0  0  0  0  0  0  0
    3.3705    0.0000    0.0000 C   0  0  0  0  0  0  0  0  0  0  0  0
    3.0367   -1.4624    0.0000 O   0  0  0  0  0  0  0  0  0  0  0  0
    2.1015   -2.6351    0.0000 C   0  0  0  0  0  0  0  0  0  0  0  0
    3.0367   -3.8079    0.0000 O   0  0  0  0  0  0  0  0  0  0  0  0
    0.7500   -3.2860    0.0000 C   0  0  0  0  0  0  0  0  0  0  0  0
    1.3600   -4.4903    0.0000 C   0  0  0  0  0  0  0  0  0  0  0  0
   -0.7500   -3.2860    0.0000 C   0  0  0  0  0  0  0  0  0  0  0  0
   -1.0838   -4.7484    0.0000 O   0  0  0  0  0  0  0  0  0  0  0  0
    0.0158   -5.7686    0.0000 C   0  0  0  0  0  0  0  0  0  0  0  0
   -0.3180   -7.2310    0.0000 C   0  0  0  0  0  0  0  0  0  0  0  0
    0.7816   -8.2513    0.0000 C   0  0  0  0  0  0  0  0  0  0  0  0
    1.4659   -9.5861    0.0000 C   0  0  0  0  0  0  0  0  0  0  0  0
   -0.4141   -9.1570    0.0000 O   0  0  0  0  0  0  0  0  0  0  0  0
   -0.2276  -10.6453    0.0000 C   0  0  0  0  0  0  0  0  0  0  0  0
    2.2150   -7.8091    0.0000 C   0  0  0  0  0  0  0  0  0  0  0  0
    3.3145   -8.8294    0.0000 O   0  0  0  0  0  0  0  0  0  0  0  0
    2.5487   -6.3467    0.0000 C   0  0  0  0  0  0  0  0  0  0  0  0
    3.9821   -5.9046    0.0000 C   0  0  0  0  0  0  0  0  0  0  0  0
    1.4492   -5.3265    0.0000 O   0  0  0  0  0  0  0  0  0  0  0  0
   -2.1015   -2.6351    0.0000 C   0  0  0  0  0  0  0  0  0  0  0  0
   -3.0367   -3.8079    0.0000 C   0  0  0  0  0  0  0  0  0  0  0  0
   -3.0367   -1.4624    0.0000 C   0  0  0  0  0  0  0  0  0  0  0  0
   -4.3881   -2.1132    0.0000 O   0  0  0  0  0  0  0  0  0  0  0  0
   -5.6275   -1.2682    0.0000 C   0  0  0  0  0  0  0  0  0  0  0  0
   -5.5154    0.2276    0.0000 O   0  0  0  0  0  0  0  0  0  0  0  0
   -6.7548    1.0725    0.0000 C   0  0  0  0  0  0  0  0  0  0  0  0
   -6.6427    2.5684    0.0000 C   0  0  0  0  0  0  0  0  0  0  0  0
   -8.1062    0.4217    0.0000 C   0  0  0  0  0  0  0  0  0  0  0  0
   -8.2183   -1.0741    0.0000 C   0  0  0  0  0  0  0  0  0  0  0  0
   -9.5698   -1.7249    0.0000 N   0  0  0  0  0  0  0  0  0  0  0  0
  -10.8091   -0.8799    0.0000 C   0  0  0  0  0  0  0  0  0  0  0  0
   -9.6819   -3.2207    0.0000 C   0  0  0  0  0  0  0  0  0  0  0  0
   -6.9790   -1.9191    0.0000 C   0  0  0  0  0  0  0  0  0  0  0  0
   -7.0910   -3.4149    0.0000 O   0  0  0  0  0  0  0  0  0  0  0  0
   -3.3705    0.0000    0.0000 C   0  0  0  0  0  0  0  0  0  0  0  0
   -4.6098   -0.8450    0.0000 C   0  0  0  0  0  0  0  0  0  0  0  0
   -4.6098    0.8450    0.0000 O   0  0  0  0  0  0  0  0  0  0  0  0
   -3.0367    1.4624    0.0000 C   0  0  0  0  0  0  0  0  0  0  0  0
   -2.1015    2.6351    0.0000 C   0  0  0  0  0  0  0  0  0  0  0  0
   -3.5348    3.0773    0.0000 C   0  0  0  0  0  0  0  0  0  0  0  0
   -2.2135    4.1309    0.0000 F   0  0  0  0  0  0  0  0  0  0  0  0
   -0.7500    3.2860    0.0000 C   0  0  0  0  0  0  0  0  0  0  0  0
   -1.0838    4.7484    0.0000 O   0  0  0  0  0  0  0  0  0  0  0  0
    0.7500    3.2860    0.0000 C   0  0  0  0  0  0  0  0  0  0  0  0
    1.0838    4.7484    0.0000 C   0  0  0  0  0  0  0  0  0  0  0  0
    2.1015    2.6351    0.0000 C   0  0  0  0  0  0  0  0  0  0  0  0
    3.0367    3.8079    0.0000 O   0  0  0  0  0  0  0  0  0  0  0  0
    3.0367    1.4624    0.0000 C   0  0  0  0  0  0  0  0  0  0  0  0
    3.7867    2.7614    0.0000 C   0  0  0  0  0  0  0  0  0  0  0  0
    4.5199    1.2388    0.0000 O   0  0  0  0  0  0  0  0  0  0  0  0
  1  2  1  0
  2  3  1  0
  3  4  1  0
  4  5  1  0
  5  6  2  0
  5  7  1  0
  7  8  1  0
  7  9  1  0
  9 10  1  0
 10 11  1  0
 11 12  1  0
 12 13  1  0
 13 14  1  0
 13 15  1  0
 15 16  1  0
 13 17  1  0
 17 18  1  0
 17 19  1  0
 19 20  1  0
 19 21  1  0
  9 22  1  0
 22 23  1  0
 22 24  1  0
 24 25  1  0
 25 26  1  0
 26 27  1  0
 27 28  1  0
 28 29  1  0
 28 30  1  0
 30 31  1  0
 31 32  1  0
 32 33  1  0
 32 34  1  0
 31 35  1  0
 35 36  1  0
 24 37  1  0
 37 38  1  0
 37 39  1  0
 37 40  1  0
 40 41  1  0
 41 42  1  0
 41 43  1  0
 41 44  1  0
 44 45  2  0
 44 46  1  0
 46 47  1  0
 46 48  1  0
 48 49  1  0
 48 50  1  0
 50 51  1  0
 50 52  1  0
 50  3  1  0
 21 11  1  0
 35 26  1  0
M  END
>  <ChEMBL_IDs>  (237) 
nan

>  <target_organism>  (237) 
nan

>  <target_molecule_pref_name>  (237) 
nan

>  <# Known Targets>  (237) 
nan

>  <Known Targets>  (237) 
nan

>  <smiles>  (237) 
CCC1OC(=O)C(C)C(OC2CC(C)(OC)C(O)C(C)O2)C(C)C(OC2OC(C)CC(N(C)C)C2O)C(C)(O)CC(C)(F)C(=O)C(C)C(O)C1(C)O

$$$$

     RDKit          2D

 50 52  0  0  0  0  0  0  0  0999 V2000
    5.6205   -1.2990    0.0000 C   0  0  0  0  0  0  0  0  0  0  0  0
    4.8705    0.0000    0.0000 C   0  0  0  0  0  0  0  0  0  0  0  0
    3.3705    0.0000    0.0000 C   0  0  0  0  0  0  0  0  0  0  0  0
    3.0367   -1.4624    0.0000 O   0  0  0  0  0  0  0  0  0  0  0  0
    2.1015   -2.6351    0.0000 C   0  0  0  0  0  0  0  0  0  0  0  0
    3.0367   -3.8079    0.0000 O   0  0  0  0  0  0  0  0  0  0  0  0
    0.7500   -3.2860    0.0000 C   0  0  0  0  0  0  0  0  0  0  0  0
    1.3600   -4.4903    0.0000 C   0  0  0  0  0  0  0  0  0  0  0  0
   -0.7500   -3.2860    0.0000 C   0  0  0  0  0  0  0  0  0  0  0  0
   -1.0838   -4.7484    0.0000 O   0  0  0  0  0  0  0  0  0  0  0  0
    0.0158   -5.7686    0.0000 C   0  0  0  0  0  0  0  0  0  0  0  0
   -0.3180   -7.2310    0.0000 C   0  0  0  0  0  0  0  0  0  0  0  0
    0.7816   -8.2513    0.0000 C   0  0  0  0  0  0  0  0  0  0  0  0
    1.4659   -9.5861    0.0000 C   0  0  0  0  0  0  0  0  0  0  0  0
   -0.4141   -9.1570    0.0000 O   0  0  0  0  0  0  0  0  0  0  0  0
   -0.2276  -10.6453    0.0000 C   0  0  0  0  0  0  0  0  0  0  0  0
    2.2150   -7.8091    0.0000 C   0  0  0  0  0  0  0  0  0  0  0  0
    3.3145   -8.8294    0.0000 O   0  0  0  0  0  0  0  0  0  0  0  0
    2.5487   -6.3467    0.0000 C   0  0  0  0  0  0  0  0  0  0  0  0
    3.9821   -5.9046    0.0000 C   0  0  0  0  0  0  0  0  0  0  0  0
    1.4492   -5.3265    0.0000 O   0  0  0  0  0  0  0  0  0  0  0  0
   -2.1015   -2.6351    0.0000 C   0  0  0  0  0  0  0  0  0  0  0  0
   -3.0367   -3.8079    0.0000 C   0  0  0  0  0  0  0  0  0  0  0  0
   -3.0367   -1.4624    0.0000 C   0  0  0  0  0  0  0  0  0  0  0  0
   -4.3881   -2.1132    0.0000 O   0  0  0  0  0  0  0  0  0  0  0  0
   -5.6275   -1.2682    0.0000 C   0  0  0  0  0  0  0  0  0  0  0  0
   -5.5154    0.2276    0.0000 O   0  0  0  0  0  0  0  0  0  0  0  0
   -6.7548    1.0725    0.0000 C   0  0  0  0  0  0  0  0  0  0  0  0
   -6.6427    2.5684    0.0000 C   0  0  0  0  0  0  0  0  0  0  0  0
   -8.1062    0.4217    0.0000 C   0  0  0  0  0  0  0  0  0  0  0  0
   -8.2183   -1.0741    0.0000 C   0  0  0  0  0  0  0  0  0  0  0  0
   -9.5698   -1.7249    0.0000 N   0  0  0  0  0  0  0  0  0  0  0  0
  -10.8091   -0.8799    0.0000 C   0  0  0  0  0  0  0  0  0  0  0  0
   -9.6819   -3.2207    0.0000 C   0  0  0  0  0  0  0  0  0  0  0  0
   -6.9790   -1.9191    0.0000 C   0  0  0  0  0  0  0  0  0  0  0  0
   -7.0910   -3.4149    0.0000 O   0  0  0  0  0  0  0  0  0  0  0  0
   -3.3705    0.0000    0.0000 C   0  0  0  0  0  0  0  0  0  0  0  0
   -4.6098   -0.8450    0.0000 C   0  0  0  0  0  0  0  0  0  0  0  0
   -4.6098    0.8450    0.0000 O   0  0  0  0  0  0  0  0  0  0  0  0
   -3.0367    1.4624    0.0000 C   0  0  0  0  0  0  0  0  0  0  0  0
   -2.1015    2.6351    0.0000 C   0  0  0  0  0  0  0  0  0  0  0  0
   -3.0367    3.8079    0.0000 C   0  0  0  0  0  0  0  0  0  0  0  0
   -0.7500    3.2860    0.0000 C   0  0  0  0  0  0  0  0  0  0  0  0
   -1.0838    4.7484    0.0000 O   0  0  0  0  0  0  0  0  0  0  0  0
    0.7500    3.2860    0.0000 C   0  0  0  0  0  0  0  0  0  0  0  0
    1.0838    4.7484    0.0000 C   0  0  0  0  0  0  0  0  0  0  0  0
    2.1015    2.6351    0.0000 C   0  0  0  0  0  0  0  0  0  0  0  0
    3.0367    3.8079    0.0000 O   0  0  0  0  0  0  0  0  0  0  0  0
    3.0367    1.4624    0.0000 C   0  0  0  0  0  0  0  0  0  0  0  0
    4.3881    2.1132    0.0000 C   0  0  0  0  0  0  0  0  0  0  0  0
  1  2  1  0
  2  3  1  0
  3  4  1  0
  4  5  1  0
  5  6  2  0
  5  7  1  0
  7  8  1  0
  7  9  1  0
  9 10  1  0
 10 11  1  0
 11 12  1  0
 12 13  1  0
 13 14  1  0
 13 15  1  0
 15 16  1  0
 13 17  1  0
 17 18  1  0
 17 19  1  0
 19 20  1  0
 19 21  1  0
  9 22  1  0
 22 23  1  0
 22 24  1  0
 24 25  1  0
 25 26  1  0
 26 27  1  0
 27 28  1  0
 28 29  1  0
 28 30  1  0
 30 31  1  0
 31 32  1  0
 32 33  1  0
 32 34  1  0
 31 35  1  0
 35 36  1  0
 24 37  1  0
 37 38  1  0
 37 39  1  0
 37 40  1  0
 40 41  1  0
 41 42  1  0
 41 43  1  0
 43 44  2  0
 43 45  1  0
 45 46  1  0
 45 47  1  0
 47 48  1  0
 47 49  1  0
 49 50  1  0
 49  3  1  0
 21 11  1  0
 35 26  1  0
M  END
>  <ChEMBL_IDs>  (238) 
nan

>  <target_organism>  (238) 
nan

>  <target_molecule_pref_name>  (238) 
nan

>  <# Known Targets>  (238) 
nan

>  <Known Targets>  (238) 
nan

>  <smiles>  (238) 
CCC1OC(=O)C(C)C(OC2CC(C)(OC)C(O)C(C)O2)C(C)C(OC2OC(C)CC(N(C)C)C2O)C(C)(O)CC(C)C(=O)C(C)C(O)C1C

$$$$

     RDKit          2D

 50 52  0  0  0  0  0  0  0  0999 V2000
    5.6205   -1.2990    0.0000 C   0  0  0  0  0  0  0  0  0  0  0  0
    4.8705    0.0000    0.0000 C   0  0  0  0  0  0  0  0  0  0  0  0
    3.3705    0.0000    0.0000 C   0  0  0  0  0  0  0  0  0  0  0  0
    3.0367   -1.4624    0.0000 O   0  0  0  0  0  0  0  0  0  0  0  0
    2.1015   -2.6351    0.0000 C   0  0  0  0  0  0  0  0  0  0  0  0
    3.0367   -3.8079    0.0000 O   0  0  0  0  0  0  0  0  0  0  0  0
    0.7500   -3.2860    0.0000 C   0  0  0  0  0  0  0  0  0  0  0  0
    1.3600   -4.4903    0.0000 C   0  0  0  0  0  0  0  0  0  0  0  0
   -0.7500   -3.2860    0.0000 C   0  0  0  0  0  0  0  0  0  0  0  0
   -1.0838   -4.7484    0.0000 O   0  0  0  0  0  0  0  0  0  0  0  0
    0.0158   -5.7686    0.0000 C   0  0  0  0  0  0  0  0  0  0  0  0
   -0.3180   -7.2310    0.0000 C   0  0  0  0  0  0  0  0  0  0  0  0
    0.7816   -8.2513    0.0000 C   0  0  0  0  0  0  0  0  0  0  0  0
    1.4659   -9.5861    0.0000 C   0  0  0  0  0  0  0  0  0  0  0  0
   -0.4141   -9.1570    0.0000 O   0  0  0  0  0  0  0  0  0  0  0  0
   -0.2276  -10.6453    0.0000 C   0  0  0  0  0  0  0  0  0  0  0  0
    2.2150   -7.8091    0.0000 C   0  0  0  0  0  0  0  0  0  0  0  0
    3.3145   -8.8294    0.0000 O   0  0  0  0  0  0  0  0  0  0  0  0
    2.5487   -6.3467    0.0000 C   0  0  0  0  0  0  0  0  0  0  0  0
    3.9821   -5.9046    0.0000 C   0  0  0  0  0  0  0  0  0  0  0  0
    1.4492   -5.3265    0.0000 O   0  0  0  0  0  0  0  0  0  0  0  0
   -2.1015   -2.6351    0.0000 C   0  0  0  0  0  0  0  0  0  0  0  0
   -3.0367   -3.8079    0.0000 C   0  0  0  0  0  0  0  0  0  0  0  0
   -3.0367   -1.4624    0.0000 C   0  0  0  0  0  0  0  0  0  0  0  0
   -4.3881   -2.1132    0.0000 O   0  0  0  0  0  0  0  0  0  0  0  0
   -5.6275   -1.2682    0.0000 C   0  0  0  0  0  0  0  0  0  0  0  0
   -5.5154    0.2276    0.0000 O   0  0  0  0  0  0  0  0  0  0  0  0
   -6.7548    1.0725    0.0000 C   0  0  0  0  0  0  0  0  0  0  0  0
   -6.6427    2.5684    0.0000 C   0  0  0  0  0  0  0  0  0  0  0  0
   -8.1062    0.4217    0.0000 C   0  0  0  0  0  0  0  0  0  0  0  0
   -8.2183   -1.0741    0.0000 C   0  0  0  0  0  0  0  0  0  0  0  0
   -9.5698   -1.7249    0.0000 N   0  0  0  0  0  0  0  0  0  0  0  0
  -10.8091   -0.8799    0.0000 C   0  0  0  0  0  0  0  0  0  0  0  0
   -9.6819   -3.2207    0.0000 C   0  0  0  0  0  0  0  0  0  0  0  0
   -6.9790   -1.9191    0.0000 C   0  0  0  0  0  0  0  0  0  0  0  0
   -7.0910   -3.4149    0.0000 O   0  0  0  0  0  0  0  0  0  0  0  0
   -3.3705    0.0000    0.0000 C   0  0  0  0  0  0  0  0  0  0  0  0
   -4.6098   -0.8450    0.0000 C   0  0  0  0  0  0  0  0  0  0  0  0
   -4.6098    0.8450    0.0000 O   0  0  0  0  0  0  0  0  0  0  0  0
   -3.0367    1.4624    0.0000 C   0  0  0  0  0  0  0  0  0  0  0  0
   -2.1015    2.6351    0.0000 C   0  0  0  0  0  0  0  0  0  0  0  0
   -3.0367    3.8079    0.0000 C   0  0  0  0  0  0  0  0  0  0  0  0
   -0.7500    3.2860    0.0000 C   0  0  0  0  0  0  0  0  0  0  0  0
   -1.0838    4.7484    0.0000 O   0  0  0  0  0  0  0  0  0  0  0  0
    0.7500    3.2860    0.0000 C   0  0  0  0  0  0  0  0  0  0  0  0
    1.0838    4.7484    0.0000 C   0  0  0  0  0  0  0  0  0  0  0  0
    2.1015    2.6351    0.0000 C   0  0  0  0  0  0  0  0  0  0  0  0
    3.0367    3.8079    0.0000 O   0  0  0  0  0  0  0  0  0  0  0  0
    3.0367    1.4624    0.0000 C   0  0  0  0  0  0  0  0  0  0  0  0
    4.3881    2.1132    0.0000 C   0  0  0  0  0  0  0  0  0  0  0  0
  1  2  1  0
  3  2  1  1
  3  4  1  0
  4  5  1  0
  5  6  2  0
  5  7  1  0
  7  8  1  6
  7  9  1  0
  9 10  1  1
 11 10  1  6
 11 12  1  0
 12 13  1  0
 13 14  1  1
 13 15  1  0
 15 16  1  0
 13 17  1  0
 17 18  1  6
 17 19  1  0
 19 20  1  1
 19 21  1  0
  9 22  1  0
 22 23  1  6
 22 24  1  0
 24 25  1  1
 26 25  1  1
 26 27  1  0
 27 28  1  0
 28 29  1  1
 28 30  1  0
 30 31  1  0
 31 32  1  1
 32 33  1  0
 32 34  1  0
 31 35  1  0
 35 36  1  6
 24 37  1  0
 37 38  1  1
 37 39  1  0
 37 40  1  0
 40 41  1  0
 41 42  1  1
 41 43  1  0
 43 44  2  0
 43 45  1  0
 45 46  1  6
 45 47  1  0
 47 48  1  1
 47 49  1  0
 49 50  1  1
 49  3  1  0
 21 11  1  0
 35 26  1  0
M  END
>  <ChEMBL_IDs>  (239) 
CHEMBL3220708

>  <target_organism>  (239) 
None

>  <target_molecule_pref_name>  (239) 
nan

>  <# Known Targets>  (239) 
nan

>  <Known Targets>  (239) 
nan

>  <smiles>  (239) 
CC[C@H]1OC(=O)[C@H](C)[C@@H](O[C@H]2C[C@@](C)(OC)[C@@H](O)[C@H](C)O2)[C@H](C)[C@@H](O[C@@H]2O[C@H](C)C[C@H](N(C)C)[C@H]2O)[C@](C)(O)C[C@@H](C)C(=O)[C@H](C)[C@@H](O)[C@H]1C

$$$$

     RDKit          2D

 50 52  0  0  0  0  0  0  0  0999 V2000
    5.6205   -1.2990    0.0000 C   0  0  0  0  0  0  0  0  0  0  0  0
    4.8705    0.0000    0.0000 C   0  0  0  0  0  0  0  0  0  0  0  0
    3.3705    0.0000    0.0000 C   0  0  0  0  0  0  0  0  0  0  0  0
    3.0367   -1.4624    0.0000 O   0  0  0  0  0  0  0  0  0  0  0  0
    2.1015   -2.6351    0.0000 C   0  0  0  0  0  0  0  0  0  0  0  0
    3.0367   -3.8079    0.0000 O   0  0  0  0  0  0  0  0  0  0  0  0
    0.7500   -3.2860    0.0000 C   0  0  0  0  0  0  0  0  0  0  0  0
    1.3600   -4.4903    0.0000 C   0  0  0  0  0  0  0  0  0  0  0  0
   -0.7500   -3.2860    0.0000 C   0  0  0  0  0  0  0  0  0  0  0  0
   -1.0838   -4.7484    0.0000 O   0  0  0  0  0  0  0  0  0  0  0  0
    0.0158   -5.7686    0.0000 C   0  0  0  0  0  0  0  0  0  0  0  0
   -0.3180   -7.2310    0.0000 C   0  0  0  0  0  0  0  0  0  0  0  0
    0.7816   -8.2513    0.0000 C   0  0  0  0  0  0  0  0  0  0  0  0
    1.4659   -9.5861    0.0000 C   0  0  0  0  0  0  0  0  0  0  0  0
   -0.4141   -9.1570    0.0000 O   0  0  0  0  0  0  0  0  0  0  0  0
   -0.2276  -10.6453    0.0000 C   0  0  0  0  0  0  0  0  0  0  0  0
    2.2150   -7.8091    0.0000 C   0  0  0  0  0  0  0  0  0  0  0  0
    3.3145   -8.8294    0.0000 O   0  0  0  0  0  0  0  0  0  0  0  0
    2.5487   -6.3467    0.0000 C   0  0  0  0  0  0  0  0  0  0  0  0
    3.9821   -5.9046    0.0000 C   0  0  0  0  0  0  0  0  0  0  0  0
    1.4492   -5.3265    0.0000 O   0  0  0  0  0  0  0  0  0  0  0  0
   -2.1015   -2.6351    0.0000 C   0  0  0  0  0  0  0  0  0  0  0  0
   -3.0367   -3.8079    0.0000 C   0  0  0  0  0  0  0  0  0  0  0  0
   -3.0367   -1.4624    0.0000 C   0  0  0  0  0  0  0  0  0  0  0  0
   -4.3881   -2.1132    0.0000 O   0  0  0  0  0  0  0  0  0  0  0  0
   -5.6275   -1.2682    0.0000 C   0  0  0  0  0  0  0  0  0  0  0  0
   -5.5154    0.2276    0.0000 O   0  0  0  0  0  0  0  0  0  0  0  0
   -6.7548    1.0725    0.0000 C   0  0  0  0  0  0  0  0  0  0  0  0
   -6.6427    2.5684    0.0000 C   0  0  0  0  0  0  0  0  0  0  0  0
   -8.1062    0.4217    0.0000 C   0  0  0  0  0  0  0  0  0  0  0  0
   -8.2183   -1.0741    0.0000 C   0  0  0  0  0  0  0  0  0  0  0  0
   -9.5698   -1.7249    0.0000 N   0  0  0  0  0  0  0  0  0  0  0  0
  -10.8091   -0.8799    0.0000 C   0  0  0  0  0  0  0  0  0  0  0  0
   -9.6819   -3.2207    0.0000 C   0  0  0  0  0  0  0  0  0  0  0  0
   -6.9790   -1.9191    0.0000 C   0  0  0  0  0  0  0  0  0  0  0  0
   -7.0910   -3.4149    0.0000 O   0  0  0  0  0  0  0  0  0  0  0  0
   -3.3705    0.0000    0.0000 C   0  0  0  0  0  0  0  0  0  0  0  0
   -4.6098   -0.8450    0.0000 C   0  0  0  0  0  0  0  0  0  0  0  0
   -4.6098    0.8450    0.0000 O   0  0  0  0  0  0  0  0  0  0  0  0
   -3.0367    1.4624    0.0000 C   0  0  0  0  0  0  0  0  0  0  0  0
   -2.1015    2.6351    0.0000 C   0  0  0  0  0  0  0  0  0  0  0  0
   -3.0367    3.8079    0.0000 C   0  0  0  0  0  0  0  0  0  0  0  0
   -0.7500    3.2860    0.0000 C   0  0  0  0  0  0  0  0  0  0  0  0
   -1.0838    4.7484    0.0000 O   0  0  0  0  0  0  0  0  0  0  0  0
    0.7500    3.2860    0.0000 C   0  0  0  0  0  0  0  0  0  0  0  0
    1.0838    4.7484    0.0000 C   0  0  0  0  0  0  0  0  0  0  0  0
    2.1015    2.6351    0.0000 C   0  0  0  0  0  0  0  0  0  0  0  0
    3.0367    3.8079    0.0000 O   0  0  0  0  0  0  0  0  0  0  0  0
    3.0367    1.4624    0.0000 C   0  0  0  0  0  0  0  0  0  0  0  0
    4.3881    2.1132    0.0000 C   0  0  0  0  0  0  0  0  0  0  0  0
  1  2  1  0
  2  3  1  0
  3  4  1  0
  4  5  1  0
  5  6  2  0
  5  7  1  0
  7  8  1  0
  7  9  1  0
  9 10  1  0
 10 11  1  0
 11 12  1  0
 12 13  1  0
 13 14  1  0
 13 15  1  0
 15 16  1  0
 13 17  1  0
 17 18  1  0
 17 19  1  0
 19 20  1  0
 19 21  1  0
  9 22  1  0
 22 23  1  0
 22 24  1  0
 24 25  1  0
 25 26  1  0
 26 27  1  0
 27 28  1  0
 28 29  1  0
 28 30  1  0
 30 31  1  0
 31 32  1  0
 32 33  1  0
 32 34  1  0
 31 35  1  0
 35 36  1  0
 24 37  1  0
 37 38  1  0
 37 39  1  0
 37 40  1  0
 40 41  1  0
 41 42  1  0
 41 43  1  0
 43 44  2  0
 43 45  1  0
 45 46  1  0
 45 47  1  0
 47 48  1  0
 47 49  1  0
 49 50  1  0
 49  3  1  0
 21 11  1  0
 35 26  1  0
M  END
>  <ChEMBL_IDs>  (240) 
nan

>  <target_organism>  (240) 
nan

>  <target_molecule_pref_name>  (240) 
nan

>  <# Known Targets>  (240) 
nan

>  <Known Targets>  (240) 
nan

>  <smiles>  (240) 
CCC1OC(=O)C(C)C(OC2CC(C)(OC)C(O)C(C)O2)C(C)C(OC2OC(C)CC(N(C)C)C2O)C(C)(O)CC(C)C(=O)C(C)C(O)C1C

$$$$

     RDKit          2D

 50 52  0  0  0  0  0  0  0  0999 V2000
    5.6205   -1.2990    0.0000 C   0  0  0  0  0  0  0  0  0  0  0  0
    4.8705    0.0000    0.0000 C   0  0  0  0  0  0  0  0  0  0  0  0
    3.3705    0.0000    0.0000 C   0  0  0  0  0  0  0  0  0  0  0  0
    3.0367   -1.4624    0.0000 O   0  0  0  0  0  0  0  0  0  0  0  0
    2.1015   -2.6351    0.0000 C   0  0  0  0  0  0  0  0  0  0  0  0
    3.0367   -3.8079    0.0000 O   0  0  0  0  0  0  0  0  0  0  0  0
    0.7500   -3.2860    0.0000 C   0  0  0  0  0  0  0  0  0  0  0  0
    1.3600   -4.4903    0.0000 C   0  0  0  0  0  0  0  0  0  0  0  0
   -0.7500   -3.2860    0.0000 C   0  0  0  0  0  0  0  0  0  0  0  0
   -1.0838   -4.7484    0.0000 O   0  0  0  0  0  0  0  0  0  0  0  0
    0.0158   -5.7686    0.0000 C   0  0  0  0  0  0  0  0  0  0  0  0
   -0.3180   -7.2310    0.0000 C   0  0  0  0  0  0  0  0  0  0  0  0
    0.7816   -8.2513    0.0000 C   0  0  0  0  0  0  0  0  0  0  0  0
    1.4659   -9.5861    0.0000 C   0  0  0  0  0  0  0  0  0  0  0  0
   -0.4141   -9.1570    0.0000 O   0  0  0  0  0  0  0  0  0  0  0  0
   -0.2276  -10.6453    0.0000 C   0  0  0  0  0  0  0  0  0  0  0  0
    2.2150   -7.8091    0.0000 C   0  0  0  0  0  0  0  0  0  0  0  0
    3.3145   -8.8294    0.0000 O   0  0  0  0  0  0  0  0  0  0  0  0
    2.5487   -6.3467    0.0000 C   0  0  0  0  0  0  0  0  0  0  0  0
    3.9821   -5.9046    0.0000 C   0  0  0  0  0  0  0  0  0  0  0  0
    1.4492   -5.3265    0.0000 O   0  0  0  0  0  0  0  0  0  0  0  0
   -2.1015   -2.6351    0.0000 C   0  0  0  0  0  0  0  0  0  0  0  0
   -3.0367   -3.8079    0.0000 C   0  0  0  0  0  0  0  0  0  0  0  0
   -3.0367   -1.4624    0.0000 C   0  0  0  0  0  0  0  0  0  0  0  0
   -4.3881   -2.1132    0.0000 O   0  0  0  0  0  0  0  0  0  0  0  0
   -5.6275   -1.2682    0.0000 C   0  0  0  0  0  0  0  0  0  0  0  0
   -5.5154    0.2276    0.0000 O   0  0  0  0  0  0  0  0  0  0  0  0
   -6.7548    1.0725    0.0000 C   0  0  0  0  0  0  0  0  0  0  0  0
   -6.6427    2.5684    0.0000 C   0  0  0  0  0  0  0  0  0  0  0  0
   -8.1062    0.4217    0.0000 C   0  0  0  0  0  0  0  0  0  0  0  0
   -8.2183   -1.0741    0.0000 C   0  0  0  0  0  0  0  0  0  0  0  0
   -9.5698   -1.7249    0.0000 N   0  0  0  0  0  0  0  0  0  0  0  0
  -10.8091   -0.8799    0.0000 C   0  0  0  0  0  0  0  0  0  0  0  0
   -9.6819   -3.2207    0.0000 C   0  0  0  0  0  0  0  0  0  0  0  0
   -6.9790   -1.9191    0.0000 C   0  0  0  0  0  0  0  0  0  0  0  0
   -7.0910   -3.4149    0.0000 O   0  0  0  0  0  0  0  0  0  0  0  0
   -3.3705    0.0000    0.0000 C   0  0  0  0  0  0  0  0  0  0  0  0
   -4.6098   -0.8450    0.0000 C   0  0  0  0  0  0  0  0  0  0  0  0
   -4.6098    0.8450    0.0000 O   0  0  0  0  0  0  0  0  0  0  0  0
   -3.0367    1.4624    0.0000 C   0  0  0  0  0  0  0  0  0  0  0  0
   -2.1015    2.6351    0.0000 C   0  0  0  0  0  0  0  0  0  0  0  0
   -3.0367    3.8079    0.0000 C   0  0  0  0  0  0  0  0  0  0  0  0
   -0.7500    3.2860    0.0000 C   0  0  0  0  0  0  0  0  0  0  0  0
   -1.0838    4.7484    0.0000 O   0  0  0  0  0  0  0  0  0  0  0  0
    0.7500    3.2860    0.0000 C   0  0  0  0  0  0  0  0  0  0  0  0
    1.0838    4.7484    0.0000 C   0  0  0  0  0  0  0  0  0  0  0  0
    2.1015    2.6351    0.0000 C   0  0  0  0  0  0  0  0  0  0  0  0
    3.0367    3.8079    0.0000 O   0  0  0  0  0  0  0  0  0  0  0  0
    3.0367    1.4624    0.0000 C   0  0  0  0  0  0  0  0  0  0  0  0
    4.3881    2.1132    0.0000 C   0  0  0  0  0  0  0  0  0  0  0  0
  1  2  1  0
  3  2  1  1
  3  4  1  0
  4  5  1  0
  5  6  2  0
  5  7  1  0
  7  8  1  6
  7  9  1  0
  9 10  1  1
 10 11  1  0
 11 12  1  0
 12 13  1  0
 13 14  1  0
 13 15  1  0
 15 16  1  0
 13 17  1  0
 17 18  1  0
 17 19  1  0
 19 20  1  0
 19 21  1  0
  9 22  1  0
 22 23  1  6
 22 24  1  0
 24 25  1  1
 25 26  1  0
 26 27  1  0
 27 28  1  0
 28 29  1  0
 28 30  1  0
 30 31  1  0
 31 32  1  0
 32 33  1  0
 32 34  1  0
 31 35  1  0
 35 36  1  0
 24 37  1  0
 37 38  1  1
 37 39  1  0
 37 40  1  0
 40 41  1  0
 41 42  1  1
 41 43  1  0
 43 44  2  0
 43 45  1  0
 45 46  1  6
 45 47  1  0
 47 48  1  1
 47 49  1  0
 49 50  1  1
 49  3  1  0
 21 11  1  0
 35 26  1  0
M  END
>  <ChEMBL_IDs>  (241) 
CHEMBL320272

>  <target_organism>  (241) 
None

>  <target_molecule_pref_name>  (241) 
nan

>  <# Known Targets>  (241) 
nan

>  <Known Targets>  (241) 
nan

>  <smiles>  (241) 
CC[C@H]1OC(=O)[C@H](C)[C@@H](OC2CC(C)(OC)C(O)C(C)O2)[C@H](C)[C@@H](OC2OC(C)CC(N(C)C)C2O)[C@](C)(O)C[C@@H](C)C(=O)[C@H](C)[C@@H](O)[C@H]1C

$$$$

     RDKit          2D

 50 52  0  0  0  0  0  0  0  0999 V2000
    5.6205   -1.2990    0.0000 C   0  0  0  0  0  0  0  0  0  0  0  0
    4.8705    0.0000    0.0000 C   0  0  0  0  0  0  0  0  0  0  0  0
    3.3705    0.0000    0.0000 C   0  0  0  0  0  0  0  0  0  0  0  0
    3.0367   -1.4624    0.0000 O   0  0  0  0  0  0  0  0  0  0  0  0
    2.1015   -2.6351    0.0000 C   0  0  0  0  0  0  0  0  0  0  0  0
    3.0367   -3.8079    0.0000 O   0  0  0  0  0  0  0  0  0  0  0  0
    0.7500   -3.2860    0.0000 C   0  0  0  0  0  0  0  0  0  0  0  0
    1.3600   -4.4903    0.0000 C   0  0  0  0  0  0  0  0  0  0  0  0
   -0.7500   -3.2860    0.0000 C   0  0  0  0  0  0  0  0  0  0  0  0
   -1.0838   -4.7484    0.0000 O   0  0  0  0  0  0  0  0  0  0  0  0
    0.0158   -5.7686    0.0000 C   0  0  0  0  0  0  0  0  0  0  0  0
   -0.3180   -7.2310    0.0000 C   0  0  0  0  0  0  0  0  0  0  0  0
    0.7816   -8.2513    0.0000 C   0  0  0  0  0  0  0  0  0  0  0  0
    1.4659   -9.5861    0.0000 C   0  0  0  0  0  0  0  0  0  0  0  0
   -0.4141   -9.1570    0.0000 O   0  0  0  0  0  0  0  0  0  0  0  0
   -0.2276  -10.6453    0.0000 C   0  0  0  0  0  0  0  0  0  0  0  0
    2.2150   -7.8091    0.0000 C   0  0  0  0  0  0  0  0  0  0  0  0
    3.3145   -8.8294    0.0000 O   0  0  0  0  0  0  0  0  0  0  0  0
    2.5487   -6.3467    0.0000 C   0  0  0  0  0  0  0  0  0  0  0  0
    3.9821   -5.9046    0.0000 C   0  0  0  0  0  0  0  0  0  0  0  0
    1.4492   -5.3265    0.0000 O   0  0  0  0  0  0  0  0  0  0  0  0
   -2.1015   -2.6351    0.0000 C   0  0  0  0  0  0  0  0  0  0  0  0
   -3.0367   -3.8079    0.0000 C   0  0  0  0  0  0  0  0  0  0  0  0
   -3.0367   -1.4624    0.0000 C   0  0  0  0  0  0  0  0  0  0  0  0
   -4.3881   -2.1132    0.0000 O   0  0  0  0  0  0  0  0  0  0  0  0
   -5.6275   -1.2682    0.0000 C   0  0  0  0  0  0  0  0  0  0  0  0
   -5.5154    0.2276    0.0000 C   0  0  0  0  0  0  0  0  0  0  0  0
   -6.7548    1.0725    0.0000 C   0  0  0  0  0  0  0  0  0  0  0  0
   -6.6427    2.5684    0.0000 N   0  0  0  0  0  0  0  0  0  0  0  0
   -7.8820    3.4133    0.0000 C   0  0  0  0  0  0  0  0  0  0  0  0
   -5.2912    3.2192    0.0000 C   0  0  0  0  0  0  0  0  0  0  0  0
   -8.1062    0.4217    0.0000 C   0  0  0  0  0  0  0  0  0  0  0  0
   -8.2183   -1.0741    0.0000 C   0  0  0  0  0  0  0  0  0  0  0  0
   -9.5698   -1.7249    0.0000 C   0  0  0  0  0  0  0  0  0  0  0  0
   -6.9790   -1.9191    0.0000 O   0  0  0  0  0  0  0  0  0  0  0  0
   -3.3705    0.0000    0.0000 C   0  0  0  0  0  0  0  0  0  0  0  0
   -4.6098   -0.8450    0.0000 C   0  0  0  0  0  0  0  0  0  0  0  0
   -4.6098    0.8450    0.0000 O   0  0  0  0  0  0  0  0  0  0  0  0
   -3.0367    1.4624    0.0000 C   0  0  0  0  0  0  0  0  0  0  0  0
   -2.1015    2.6351    0.0000 C   0  0  0  0  0  0  0  0  0  0  0  0
   -3.0367    3.8079    0.0000 C   0  0  0  0  0  0  0  0  0  0  0  0
   -0.7500    3.2860    0.0000 C   0  0  0  0  0  0  0  0  0  0  0  0
   -1.0838    4.7484    0.0000 O   0  0  0  0  0  0  0  0  0  0  0  0
    0.7500    3.2860    0.0000 C   0  0  0  0  0  0  0  0  0  0  0  0
    1.0838    4.7484    0.0000 C   0  0  0  0  0  0  0  0  0  0  0  0
    2.1015    2.6351    0.0000 C   0  0  0  0  0  0  0  0  0  0  0  0
    3.0367    3.8079    0.0000 O   0  0  0  0  0  0  0  0  0  0  0  0
    3.0367    1.4624    0.0000 C   0  0  0  0  0  0  0  0  0  0  0  0
    3.7867    2.7614    0.0000 C   0  0  0  0  0  0  0  0  0  0  0  0
    4.5199    1.2388    0.0000 O   0  0  0  0  0  0  0  0  0  0  0  0
  1  2  1  0
  3  2  1  1
  3  4  1  0
  4  5  1  0
  5  6  2  0
  5  7  1  0
  7  8  1  6
  7  9  1  0
  9 10  1  1
 11 10  1  6
 11 12  1  0
 12 13  1  0
 13 14  1  1
 13 15  1  0
 15 16  1  0
 13 17  1  0
 17 18  1  6
 17 19  1  0
 19 20  1  1
 19 21  1  0
  9 22  1  0
 22 23  1  6
 22 24  1  0
 24 25  1  1
 26 25  1  6
 26 27  1  0
 27 28  1  0
 28 29  1  6
 29 30  1  0
 29 31  1  0
 28 32  1  0
 32 33  1  0
 33 34  1  6
 33 35  1  0
 24 36  1  0
 36 37  1  1
 36 38  1  0
 36 39  1  0
 39 40  1  0
 40 41  1  1
 40 42  1  0
 42 43  2  0
 42 44  1  0
 44 45  1  6
 44 46  1  0
 46 47  1  1
 46 48  1  0
 48 49  1  1
 48 50  1  0
 48  3  1  0
 21 11  1  0
 35 26  1  0
M  END
>  <ChEMBL_IDs>  (242) 
CHEMBL2063470

>  <target_organism>  (242) 
Plasmodium falciparum

>  <target_molecule_pref_name>  (242) 
nan

>  <# Known Targets>  (242) 
nan

>  <Known Targets>  (242) 
nan

>  <smiles>  (242) 
CC[C@H]1OC(=O)[C@H](C)[C@@H](O[C@H]2C[C@@](C)(OC)[C@@H](O)[C@H](C)O2)[C@H](C)[C@@H](O[C@H]2C[C@@H](N(C)C)C[C@@H](C)O2)[C@](C)(O)C[C@@H](C)C(=O)[C@H](C)[C@@H](O)[C@]1(C)O

$$$$

     RDKit          2D

 51 53  0  0  0  0  0  0  0  0999 V2000
    5.6205   -1.2990    0.0000 C   0  0  0  0  0  0  0  0  0  0  0  0
    4.8705    0.0000    0.0000 C   0  0  0  0  0  0  0  0  0  0  0  0
    3.3705    0.0000    0.0000 C   0  0  0  0  0  0  0  0  0  0  0  0
    3.0367   -1.4624    0.0000 O   0  0  0  0  0  0  0  0  0  0  0  0
    2.1015   -2.6351    0.0000 C   0  0  0  0  0  0  0  0  0  0  0  0
    3.0367   -3.8079    0.0000 O   0  0  0  0  0  0  0  0  0  0  0  0
    0.7500   -3.2860    0.0000 C   0  0  0  0  0  0  0  0  0  0  0  0
    1.3600   -4.4903    0.0000 C   0  0  0  0  0  0  0  0  0  0  0  0
   -0.7500   -3.2860    0.0000 C   0  0  0  0  0  0  0  0  0  0  0  0
   -1.0838   -4.7484    0.0000 O   0  0  0  0  0  0  0  0  0  0  0  0
    0.0158   -5.7686    0.0000 C   0  0  0  0  0  0  0  0  0  0  0  0
   -0.3180   -7.2310    0.0000 C   0  0  0  0  0  0  0  0  0  0  0  0
    0.7816   -8.2513    0.0000 C   0  0  0  0  0  0  0  0  0  0  0  0
    1.4659   -9.5861    0.0000 C   0  0  0  0  0  0  0  0  0  0  0  0
   -0.4141   -9.1570    0.0000 O   0  0  0  0  0  0  0  0  0  0  0  0
   -0.2276  -10.6453    0.0000 C   0  0  0  0  0  0  0  0  0  0  0  0
    2.2150   -7.8091    0.0000 C   0  0  0  0  0  0  0  0  0  0  0  0
    3.3145   -8.8294    0.0000 O   0  0  0  0  0  0  0  0  0  0  0  0
    2.5487   -6.3467    0.0000 C   0  0  0  0  0  0  0  0  0  0  0  0
    3.9821   -5.9046    0.0000 C   0  0  0  0  0  0  0  0  0  0  0  0
    1.4492   -5.3265    0.0000 O   0  0  0  0  0  0  0  0  0  0  0  0
   -2.1015   -2.6351    0.0000 C   0  0  0  0  0  0  0  0  0  0  0  0
   -3.0367   -3.8079    0.0000 C   0  0  0  0  0  0  0  0  0  0  0  0
   -3.0367   -1.4624    0.0000 C   0  0  0  0  0  0  0  0  0  0  0  0
   -4.3881   -2.1132    0.0000 O   0  0  0  0  0  0  0  0  0  0  0  0
   -5.6275   -1.2682    0.0000 C   0  0  0  0  0  0  0  0  0  0  0  0
   -5.5154    0.2276    0.0000 O   0  0  0  0  0  0  0  0  0  0  0  0
   -6.7548    1.0725    0.0000 C   0  0  0  0  0  0  0  0  0  0  0  0
   -6.6427    2.5684    0.0000 C   0  0  0  0  0  0  0  0  0  0  0  0
   -8.1062    0.4217    0.0000 C   0  0  0  0  0  0  0  0  0  0  0  0
   -8.2183   -1.0741    0.0000 C   0  0  0  0  0  0  0  0  0  0  0  0
   -9.5698   -1.7249    0.0000 N   0  0  0  0  0  0  0  0  0  0  0  0
  -10.8091   -0.8799    0.0000 C   0  0  0  0  0  0  0  0  0  0  0  0
   -6.9790   -1.9191    0.0000 C   0  0  0  0  0  0  0  0  0  0  0  0
   -7.0910   -3.4149    0.0000 O   0  0  0  0  0  0  0  0  0  0  0  0
   -3.3705    0.0000    0.0000 C   0  0  0  0  0  0  0  0  0  0  0  0
   -4.6098   -0.8450    0.0000 C   0  0  0  0  0  0  0  0  0  0  0  0
   -4.6098    0.8450    0.0000 O   0  0  0  0  0  0  0  0  0  0  0  0
   -5.3904    0.6832    0.0000 C   0  0  0  0  0  0  0  0  0  0  0  0
   -3.0367    1.4624    0.0000 C   0  0  0  0  0  0  0  0  0  0  0  0
   -2.1015    2.6351    0.0000 C   0  0  0  0  0  0  0  0  0  0  0  0
   -3.0367    3.8079    0.0000 C   0  0  0  0  0  0  0  0  0  0  0  0
   -0.7500    3.2860    0.0000 C   0  0  0  0  0  0  0  0  0  0  0  0
   -1.0838    4.7484    0.0000 O   0  0  0  0  0  0  0  0  0  0  0  0
    0.7500    3.2860    0.0000 C   0  0  0  0  0  0  0  0  0  0  0  0
    1.0838    4.7484    0.0000 C   0  0  0  0  0  0  0  0  0  0  0  0
    2.1015    2.6351    0.0000 C   0  0  0  0  0  0  0  0  0  0  0  0
    3.0367    3.8079    0.0000 O   0  0  0  0  0  0  0  0  0  0  0  0
    3.0367    1.4624    0.0000 C   0  0  0  0  0  0  0  0  0  0  0  0
    3.7867    2.7614    0.0000 C   0  0  0  0  0  0  0  0  0  0  0  0
    4.5199    1.2388    0.0000 O   0  0  0  0  0  0  0  0  0  0  0  0
  1  2  1  0
  3  2  1  1
  3  4  1  0
  4  5  1  0
  5  6  2  0
  5  7  1  0
  7  8  1  6
  7  9  1  0
  9 10  1  1
 11 10  1  6
 11 12  1  0
 12 13  1  0
 13 14  1  1
 13 15  1  0
 15 16  1  0
 13 17  1  0
 17 18  1  6
 17 19  1  0
 19 20  1  1
 19 21  1  0
  9 22  1  0
 22 23  1  6
 22 24  1  0
 24 25  1  1
 26 25  1  1
 26 27  1  0
 27 28  1  0
 28 29  1  1
 28 30  1  0
 30 31  1  0
 31 32  1  1
 32 33  1  0
 31 34  1  0
 34 35  1  6
 24 36  1  0
 36 37  1  1
 36 38  1  0
 38 39  1  0
 36 40  1  0
 40 41  1  0
 41 42  1  1
 41 43  1  0
 43 44  2  0
 43 45  1  0
 45 46  1  6
 45 47  1  0
 47 48  1  1
 47 49  1  0
 49 50  1  1
 49 51  1  0
 49  3  1  0
 21 11  1  0
 34 26  1  0
M  END
>  <ChEMBL_IDs>  (243) 
CHEMBL2022715

>  <target_organism>  (243) 
Staphylococcus aureus

>  <target_molecule_pref_name>  (243) 
nan

>  <# Known Targets>  (243) 
nan

>  <Known Targets>  (243) 
nan

>  <smiles>  (243) 
CC[C@H]1OC(=O)[C@H](C)[C@@H](O[C@H]2C[C@@](C)(OC)[C@@H](O)[C@H](C)O2)[C@H](C)[C@@H](O[C@@H]2O[C@H](C)C[C@H](NC)[C@H]2O)[C@](C)(OC)C[C@@H](C)C(=O)[C@H](C)[C@@H](O)[C@]1(C)O

$$$$

     RDKit          2D

 51 53  0  0  0  0  0  0  0  0999 V2000
    5.6205   -1.2990    0.0000 C   0  0  0  0  0  0  0  0  0  0  0  0
    4.8705    0.0000    0.0000 C   0  0  0  0  0  0  0  0  0  0  0  0
    3.3705    0.0000    0.0000 C   0  0  0  0  0  0  0  0  0  0  0  0
    3.0367   -1.4624    0.0000 O   0  0  0  0  0  0  0  0  0  0  0  0
    2.1015   -2.6351    0.0000 C   0  0  0  0  0  0  0  0  0  0  0  0
    3.0367   -3.8079    0.0000 O   0  0  0  0  0  0  0  0  0  0  0  0
    0.7500   -3.2860    0.0000 C   0  0  0  0  0  0  0  0  0  0  0  0
    1.3600   -4.4903    0.0000 C   0  0  0  0  0  0  0  0  0  0  0  0
   -0.7500   -3.2860    0.0000 C   0  0  0  0  0  0  0  0  0  0  0  0
   -1.0838   -4.7484    0.0000 O   0  0  0  0  0  0  0  0  0  0  0  0
    0.0158   -5.7686    0.0000 C   0  0  0  0  0  0  0  0  0  0  0  0
   -0.3180   -7.2310    0.0000 C   0  0  0  0  0  0  0  0  0  0  0  0
    0.7816   -8.2513    0.0000 C   0  0  0  0  0  0  0  0  0  0  0  0
    1.4659   -9.5861    0.0000 C   0  0  0  0  0  0  0  0  0  0  0  0
   -0.4141   -9.1570    0.0000 O   0  0  0  0  0  0  0  0  0  0  0  0
   -0.2276  -10.6453    0.0000 C   0  0  0  0  0  0  0  0  0  0  0  0
    2.2150   -7.8091    0.0000 C   0  0  0  0  0  0  0  0  0  0  0  0
    3.3145   -8.8294    0.0000 O   0  0  0  0  0  0  0  0  0  0  0  0
    2.5487   -6.3467    0.0000 C   0  0  0  0  0  0  0  0  0  0  0  0
    3.9821   -5.9046    0.0000 C   0  0  0  0  0  0  0  0  0  0  0  0
    1.4492   -5.3265    0.0000 O   0  0  0  0  0  0  0  0  0  0  0  0
   -2.1015   -2.6351    0.0000 C   0  0  0  0  0  0  0  0  0  0  0  0
   -3.0367   -3.8079    0.0000 C   0  0  0  0  0  0  0  0  0  0  0  0
   -3.0367   -1.4624    0.0000 C   0  0  0  0  0  0  0  0  0  0  0  0
   -4.3881   -2.1132    0.0000 O   0  0  0  0  0  0  0  0  0  0  0  0
   -5.6275   -1.2682    0.0000 C   0  0  0  0  0  0  0  0  0  0  0  0
   -5.5154    0.2276    0.0000 O   0  0  0  0  0  0  0  0  0  0  0  0
   -6.7548    1.0725    0.0000 C   0  0  0  0  0  0  0  0  0  0  0  0
   -6.6427    2.5684    0.0000 C   0  0  0  0  0  0  0  0  0  0  0  0
   -8.1062    0.4217    0.0000 C   0  0  0  0  0  0  0  0  0  0  0  0
   -8.2183   -1.0741    0.0000 C   0  0  0  0  0  0  0  0  0  0  0  0
   -9.5698   -1.7249    0.0000 N   0  0  0  0  0  0  0  0  0  0  0  0
  -10.8091   -0.8799    0.0000 C   0  0  0  0  0  0  0  0  0  0  0  0
   -9.6819   -3.2207    0.0000 C   0  0  0  0  0  0  0  0  0  0  0  0
   -6.9790   -1.9191    0.0000 C   0  0  0  0  0  0  0  0  0  0  0  0
   -7.0910   -3.4149    0.0000 O   0  0  0  0  0  0  0  0  0  0  0  0
   -3.3705    0.0000    0.0000 C   0  0  0  0  0  0  0  0  0  0  0  0
   -4.6098   -0.8450    0.0000 C   0  0  0  0  0  0  0  0  0  0  0  0
   -4.6098    0.8450    0.0000 O   0  0  0  0  0  0  0  0  0  0  0  0
   -3.0367    1.4624    0.0000 C   0  0  0  0  0  0  0  0  0  0  0  0
   -2.1015    2.6351    0.0000 C   0  0  0  0  0  0  0  0  0  0  0  0
   -3.0367    3.8079    0.0000 C   0  0  0  0  0  0  0  0  0  0  0  0
   -0.7500    3.2860    0.0000 C   0  0  0  0  0  0  0  0  0  0  0  0
   -1.0838    4.7484    0.0000 O   0  0  0  0  0  0  0  0  0  0  0  0
    0.7500    3.2860    0.0000 C   0  0  0  0  0  0  0  0  0  0  0  0
    1.0838    4.7484    0.0000 C   0  0  0  0  0  0  0  0  0  0  0  0
    2.1015    2.6351    0.0000 C   0  0  0  0  0  0  0  0  0  0  0  0
    3.0367    3.8079    0.0000 O   0  0  0  0  0  0  0  0  0  0  0  0
    3.0367    1.4624    0.0000 C   0  0  0  0  0  0  0  0  0  0  0  0
    3.7867    2.7614    0.0000 C   0  0  0  0  0  0  0  0  0  0  0  0
    4.5199    1.2388    0.0000 O   0  0  0  0  0  0  0  0  0  0  0  0
  1  2  1  0
  3  2  1  1
  3  4  1  0
  4  5  1  0
  5  6  2  0
  5  7  1  0
  7  8  1  6
  7  9  1  0
  9 10  1  1
 11 10  1  6
 11 12  1  0
 12 13  1  0
 13 14  1  1
 13 15  1  0
 15 16  1  0
 13 17  1  0
 17 18  1  6
 17 19  1  0
 19 20  1  1
 19 21  1  0
  9 22  1  0
 22 23  1  6
 22 24  1  0
 24 25  1  1
 26 25  1  6
 26 27  1  0
 27 28  1  0
 28 29  1  6
 28 30  1  0
 30 31  1  0
 31 32  1  6
 32 33  1  0
 32 34  1  0
 31 35  1  0
 35 36  1  1
 24 37  1  0
 37 38  1  1
 37 39  1  0
 37 40  1  0
 40 41  1  0
 41 42  1  1
 41 43  1  0
 43 44  2  0
 43 45  1  0
 45 46  1  6
 45 47  1  0
 47 48  1  1
 47 49  1  0
 49 50  1  1
 49 51  1  0
 49  3  1  0
 21 11  1  0
 35 26  1  0
M  END
>  <ChEMBL_IDs>  (244) 
nan

>  <target_organism>  (244) 
nan

>  <target_molecule_pref_name>  (244) 
nan

>  <# Known Targets>  (244) 
nan

>  <Known Targets>  (244) 
nan

>  <smiles>  (244) 
CC[C@H]1OC(=O)[C@H](C)[C@@H](O[C@H]2C[C@@](C)(OC)[C@@H](O)[C@H](C)O2)[C@H](C)[C@@H](O[C@H]2O[C@@H](C)C[C@@H](N(C)C)[C@@H]2O)[C@](C)(O)C[C@@H](C)C(=O)[C@H](C)[C@@H](O)[C@]1(C)O

$$$$

     RDKit          2D

 51 53  0  0  0  0  0  0  0  0999 V2000
    5.6205   -1.2990    0.0000 C   0  0  0  0  0  0  0  0  0  0  0  0
    4.8705    0.0000    0.0000 C   0  0  0  0  0  0  0  0  0  0  0  0
    3.3705    0.0000    0.0000 C   0  0  0  0  0  0  0  0  0  0  0  0
    3.0367   -1.4624    0.0000 O   0  0  0  0  0  0  0  0  0  0  0  0
    2.1015   -2.6351    0.0000 C   0  0  0  0  0  0  0  0  0  0  0  0
    3.0367   -3.8079    0.0000 O   0  0  0  0  0  0  0  0  0  0  0  0
    0.7500   -3.2860    0.0000 C   0  0  0  0  0  0  0  0  0  0  0  0
    1.3600   -4.4903    0.0000 C   0  0  0  0  0  0  0  0  0  0  0  0
   -0.7500   -3.2860    0.0000 C   0  0  0  0  0  0  0  0  0  0  0  0
   -1.0838   -4.7484    0.0000 O   0  0  0  0  0  0  0  0  0  0  0  0
    0.0158   -5.7686    0.0000 C   0  0  0  0  0  0  0  0  0  0  0  0
   -0.3180   -7.2310    0.0000 C   0  0  0  0  0  0  0  0  0  0  0  0
    0.7816   -8.2513    0.0000 C   0  0  0  0  0  0  0  0  0  0  0  0
    1.4659   -9.5861    0.0000 C   0  0  0  0  0  0  0  0  0  0  0  0
   -0.4141   -9.1570    0.0000 O   0  0  0  0  0  0  0  0  0  0  0  0
   -0.2276  -10.6453    0.0000 C   0  0  0  0  0  0  0  0  0  0  0  0
    2.2150   -7.8091    0.0000 C   0  0  0  0  0  0  0  0  0  0  0  0
    3.3145   -8.8294    0.0000 O   0  0  0  0  0  0  0  0  0  0  0  0
    2.5487   -6.3467    0.0000 C   0  0  0  0  0  0  0  0  0  0  0  0
    3.9821   -5.9046    0.0000 C   0  0  0  0  0  0  0  0  0  0  0  0
    1.4492   -5.3265    0.0000 O   0  0  0  0  0  0  0  0  0  0  0  0
   -2.1015   -2.6351    0.0000 C   0  0  0  0  0  0  0  0  0  0  0  0
   -3.0367   -3.8079    0.0000 C   0  0  0  0  0  0  0  0  0  0  0  0
   -3.0367   -1.4624    0.0000 C   0  0  0  0  0  0  0  0  0  0  0  0
   -4.3881   -2.1132    0.0000 O   0  0  0  0  0  0  0  0  0  0  0  0
   -5.6275   -1.2682    0.0000 C   0  0  0  0  0  0  0  0  0  0  0  0
   -5.5154    0.2276    0.0000 O   0  0  0  0  0  0  0  0  0  0  0  0
   -6.7548    1.0725    0.0000 C   0  0  0  0  0  0  0  0  0  0  0  0
   -6.6427    2.5684    0.0000 C   0  0  0  0  0  0  0  0  0  0  0  0
   -8.1062    0.4217    0.0000 C   0  0  0  0  0  0  0  0  0  0  0  0
   -8.2183   -1.0741    0.0000 C   0  0  0  0  0  0  0  0  0  0  0  0
   -9.5698   -1.7249    0.0000 N   0  0  0  0  0  0  0  0  0  0  0  0
  -10.8091   -0.8799    0.0000 C   0  0  0  0  0  0  0  0  0  0  0  0
   -9.6819   -3.2207    0.0000 C   0  0  0  0  0  0  0  0  0  0  0  0
   -6.9790   -1.9191    0.0000 C   0  0  0  0  0  0  0  0  0  0  0  0
   -7.0910   -3.4149    0.0000 O   0  0  0  0  0  0  0  0  0  0  0  0
   -3.3705    0.0000    0.0000 C   0  0  0  0  0  0  0  0  0  0  0  0
   -4.6098   -0.8450    0.0000 C   0  0  0  0  0  0  0  0  0  0  0  0
   -4.6098    0.8450    0.0000 O   0  0  0  0  0  0  0  0  0  0  0  0
   -3.0367    1.4624    0.0000 C   0  0  0  0  0  0  0  0  0  0  0  0
   -2.1015    2.6351    0.0000 C   0  0  0  0  0  0  0  0  0  0  0  0
   -3.0367    3.8079    0.0000 C   0  0  0  0  0  0  0  0  0  0  0  0
   -0.7500    3.2860    0.0000 C   0  0  0  0  0  0  0  0  0  0  0  0
   -1.0838    4.7484    0.0000 O   0  0  0  0  0  0  0  0  0  0  0  0
    0.7500    3.2860    0.0000 C   0  0  0  0  0  0  0  0  0  0  0  0
    1.0838    4.7484    0.0000 C   0  0  0  0  0  0  0  0  0  0  0  0
    2.1015    2.6351    0.0000 C   0  0  0  0  0  0  0  0  0  0  0  0
    3.0367    3.8079    0.0000 O   0  0  0  0  0  0  0  0  0  0  0  0
    3.0367    1.4624    0.0000 C   0  0  0  0  0  0  0  0  0  0  0  0
    3.7867    2.7614    0.0000 C   0  0  0  0  0  0  0  0  0  0  0  0
    4.5199    1.2388    0.0000 O   0  0  0  0  0  0  0  0  0  0  0  0
  1  2  1  0
  3  2  1  1
  3  4  1  0
  4  5  1  0
  5  6  2  0
  5  7  1  0
  7  8  1  6
  7  9  1  0
  9 10  1  1
 11 10  1  6
 11 12  1  0
 12 13  1  0
 13 14  1  6
 13 15  1  0
 15 16  1  0
 13 17  1  0
 17 18  1  1
 17 19  1  0
 19 20  1  6
 19 21  1  0
  9 22  1  0
 22 23  1  6
 22 24  1  0
 24 25  1  1
 26 25  1  1
 26 27  1  0
 27 28  1  0
 28 29  1  6
 28 30  1  0
 30 31  1  0
 31 32  1  6
 32 33  1  0
 32 34  1  0
 31 35  1  0
 35 36  1  1
 24 37  1  0
 37 38  1  1
 37 39  1  0
 37 40  1  0
 40 41  1  0
 41 42  1  1
 41 43  1  0
 43 44  2  0
 43 45  1  0
 45 46  1  6
 45 47  1  0
 47 48  1  1
 47 49  1  0
 49 50  1  1
 49 51  1  0
 49  3  1  0
 21 11  1  0
 35 26  1  0
M  END
>  <ChEMBL_IDs>  (245) 
CHEMBL406286

>  <target_organism>  (245) 
Hepatitis C virus,None

>  <target_molecule_pref_name>  (245) 
nan

>  <# Known Targets>  (245) 
nan

>  <Known Targets>  (245) 
nan

>  <smiles>  (245) 
CC[C@H]1OC(=O)[C@H](C)[C@@H](O[C@H]2C[C@](C)(OC)[C@H](O)[C@@H](C)O2)[C@H](C)[C@@H](O[C@@H]2O[C@@H](C)C[C@@H](N(C)C)[C@@H]2O)[C@](C)(O)C[C@@H](C)C(=O)[C@H](C)[C@@H](O)[C@]1(C)O

$$$$

     RDKit          2D

 51 53  0  0  0  0  0  0  0  0999 V2000
    5.6205   -1.2990    0.0000 C   0  0  0  0  0  0  0  0  0  0  0  0
    4.8705    0.0000    0.0000 C   0  0  0  0  0  0  0  0  0  0  0  0
    3.3705    0.0000    0.0000 C   0  0  0  0  0  0  0  0  0  0  0  0
    3.0367   -1.4624    0.0000 O   0  0  0  0  0  0  0  0  0  0  0  0
    2.1015   -2.6351    0.0000 C   0  0  0  0  0  0  0  0  0  0  0  0
    3.0367   -3.8079    0.0000 O   0  0  0  0  0  0  0  0  0  0  0  0
    0.7500   -3.2860    0.0000 C   0  0  0  0  0  0  0  0  0  0  0  0
    1.3600   -4.4903    0.0000 C   0  0  0  0  0  0  0  0  0  0  0  0
   -0.7500   -3.2860    0.0000 C   0  0  0  0  0  0  0  0  0  0  0  0
   -1.0838   -4.7484    0.0000 O   0  0  0  0  0  0  0  0  0  0  0  0
    0.0158   -5.7686    0.0000 C   0  0  0  0  0  0  0  0  0  0  0  0
   -0.3180   -7.2310    0.0000 C   0  0  0  0  0  0  0  0  0  0  0  0
    0.7816   -8.2513    0.0000 C   0  0  0  0  0  0  0  0  0  0  0  0
    1.4659   -9.5861    0.0000 C   0  0  0  0  0  0  0  0  0  0  0  0
   -0.4141   -9.1570    0.0000 O   0  0  0  0  0  0  0  0  0  0  0  0
   -0.2276  -10.6453    0.0000 C   0  0  0  0  0  0  0  0  0  0  0  0
    2.2150   -7.8091    0.0000 C   0  0  0  0  0  0  0  0  0  0  0  0
    3.3145   -8.8294    0.0000 O   0  0  0  0  0  0  0  0  0  0  0  0
    2.5487   -6.3467    0.0000 C   0  0  0  0  0  0  0  0  0  0  0  0
    3.9821   -5.9046    0.0000 C   0  0  0  0  0  0  0  0  0  0  0  0
    1.4492   -5.3265    0.0000 O   0  0  0  0  0  0  0  0  0  0  0  0
   -2.1015   -2.6351    0.0000 C   0  0  0  0  0  0  0  0  0  0  0  0
   -3.0367   -3.8079    0.0000 C   0  0  0  0  0  0  0  0  0  0  0  0
   -3.0367   -1.4624    0.0000 C   0  0  0  0  0  0  0  0  0  0  0  0
   -4.3881   -2.1132    0.0000 O   0  0  0  0  0  0  0  0  0  0  0  0
   -5.6275   -1.2682    0.0000 C   0  0  0  0  0  0  0  0  0  0  0  0
   -5.5154    0.2276    0.0000 O   0  0  0  0  0  0  0  0  0  0  0  0
   -6.7548    1.0725    0.0000 C   0  0  0  0  0  0  0  0  0  0  0  0
   -6.6427    2.5684    0.0000 C   0  0  0  0  0  0  0  0  0  0  0  0
   -8.1062    0.4217    0.0000 C   0  0  0  0  0  0  0  0  0  0  0  0
   -8.2183   -1.0741    0.0000 C   0  0  0  0  0  0  0  0  0  0  0  0
   -9.5698   -1.7249    0.0000 N   0  0  0  0  0  0  0  0  0  0  0  0
  -10.8091   -0.8799    0.0000 C   0  0  0  0  0  0  0  0  0  0  0  0
   -9.6819   -3.2207    0.0000 C   0  0  0  0  0  0  0  0  0  0  0  0
   -6.9790   -1.9191    0.0000 C   0  0  0  0  0  0  0  0  0  0  0  0
   -7.0910   -3.4149    0.0000 O   0  0  0  0  0  0  0  0  0  0  0  0
   -3.3705    0.0000    0.0000 C   0  0  0  0  0  0  0  0  0  0  0  0
   -4.6098   -0.8450    0.0000 C   0  0  0  0  0  0  0  0  0  0  0  0
   -4.6098    0.8450    0.0000 O   0  0  0  0  0  0  0  0  0  0  0  0
   -3.0367    1.4624    0.0000 C   0  0  0  0  0  0  0  0  0  0  0  0
   -2.1015    2.6351    0.0000 C   0  0  0  0  0  0  0  0  0  0  0  0
   -3.0367    3.8079    0.0000 C   0  0  0  0  0  0  0  0  0  0  0  0
   -0.7500    3.2860    0.0000 C   0  0  0  0  0  0  0  0  0  0  0  0
   -1.0838    4.7484    0.0000 O   0  0  0  0  0  0  0  0  0  0  0  0
    0.7500    3.2860    0.0000 C   0  0  0  0  0  0  0  0  0  0  0  0
    1.0838    4.7484    0.0000 C   0  0  0  0  0  0  0  0  0  0  0  0
    2.1015    2.6351    0.0000 C   0  0  0  0  0  0  0  0  0  0  0  0
    3.0367    3.8079    0.0000 O   0  0  0  0  0  0  0  0  0  0  0  0
    3.0367    1.4624    0.0000 C   0  0  0  0  0  0  0  0  0  0  0  0
    3.7867    2.7614    0.0000 C   0  0  0  0  0  0  0  0  0  0  0  0
    4.5199    1.2388    0.0000 O   0  0  0  0  0  0  0  0  0  0  0  0
  1  2  1  0
  3  2  1  1
  3  4  1  0
  4  5  1  0
  5  6  2  0
  5  7  1  0
  7  8  1  6
  7  9  1  0
  9 10  1  1
 10 11  1  0
 11 12  1  0
 12 13  1  0
 13 14  1  1
 13 15  1  0
 15 16  1  0
 13 17  1  0
 17 18  1  6
 17 19  1  0
 19 20  1  1
 19 21  1  0
  9 22  1  0
 22 23  1  6
 22 24  1  0
 24 25  1  1
 26 25  1  1
 26 27  1  0
 27 28  1  0
 28 29  1  1
 28 30  1  0
 30 31  1  0
 31 32  1  1
 32 33  1  0
 32 34  1  0
 31 35  1  0
 35 36  1  6
 24 37  1  0
 37 38  1  1
 37 39  1  0
 37 40  1  0
 40 41  1  0
 41 42  1  1
 41 43  1  0
 43 44  2  0
 43 45  1  0
 45 46  1  6
 45 47  1  0
 47 48  1  1
 47 49  1  0
 49 50  1  1
 49 51  1  0
 49  3  1  0
 21 11  1  0
 35 26  1  0
M  END
>  <ChEMBL_IDs>  (246) 
nan

>  <target_organism>  (246) 
nan

>  <target_molecule_pref_name>  (246) 
nan

>  <# Known Targets>  (246) 
nan

>  <Known Targets>  (246) 
nan

>  <smiles>  (246) 
CC[C@H]1OC(=O)[C@H](C)[C@@H](OC2C[C@@](C)(OC)[C@@H](O)[C@H](C)O2)[C@H](C)[C@@H](O[C@@H]2O[C@H](C)C[C@H](N(C)C)[C@H]2O)[C@](C)(O)C[C@@H](C)C(=O)[C@H](C)[C@@H](O)[C@]1(C)O

$$$$

     RDKit          2D

 51 53  0  0  0  0  0  0  0  0999 V2000
    5.6205   -1.2990    0.0000 C   0  0  0  0  0  0  0  0  0  0  0  0
    4.8705    0.0000    0.0000 C   0  0  0  0  0  0  0  0  0  0  0  0
    3.3705    0.0000    0.0000 C   0  0  0  0  0  0  0  0  0  0  0  0
    3.0367   -1.4624    0.0000 O   0  0  0  0  0  0  0  0  0  0  0  0
    2.1015   -2.6351    0.0000 C   0  0  0  0  0  0  0  0  0  0  0  0
    3.0367   -3.8079    0.0000 O   0  0  0  0  0  0  0  0  0  0  0  0
    0.7500   -3.2860    0.0000 C   0  0  0  0  0  0  0  0  0  0  0  0
    1.3600   -4.4903    0.0000 C   0  0  0  0  0  0  0  0  0  0  0  0
   -0.7500   -3.2860    0.0000 C   0  0  0  0  0  0  0  0  0  0  0  0
   -1.0838   -4.7484    0.0000 O   0  0  0  0  0  0  0  0  0  0  0  0
    0.0158   -5.7686    0.0000 C   0  0  0  0  0  0  0  0  0  0  0  0
   -0.3180   -7.2310    0.0000 C   0  0  0  0  0  0  0  0  0  0  0  0
    0.7816   -8.2513    0.0000 C   0  0  0  0  0  0  0  0  0  0  0  0
    1.4659   -9.5861    0.0000 C   0  0  0  0  0  0  0  0  0  0  0  0
   -0.4141   -9.1570    0.0000 O   0  0  0  0  0  0  0  0  0  0  0  0
   -0.2276  -10.6453    0.0000 C   0  0  0  0  0  0  0  0  0  0  0  0
    2.2150   -7.8091    0.0000 C   0  0  0  0  0  0  0  0  0  0  0  0
    3.3145   -8.8294    0.0000 O   0  0  0  0  0  0  0  0  0  0  0  0
    2.5487   -6.3467    0.0000 C   0  0  0  0  0  0  0  0  0  0  0  0
    3.9821   -5.9046    0.0000 C   0  0  0  0  0  0  0  0  0  0  0  0
    1.4492   -5.3265    0.0000 O   0  0  0  0  0  0  0  0  0  0  0  0
   -2.1015   -2.6351    0.0000 C   0  0  0  0  0  0  0  0  0  0  0  0
   -3.0367   -3.8079    0.0000 C   0  0  0  0  0  0  0  0  0  0  0  0
   -3.0367   -1.4624    0.0000 C   0  0  0  0  0  0  0  0  0  0  0  0
   -4.3881   -2.1132    0.0000 O   0  0  0  0  0  0  0  0  0  0  0  0
   -5.6275   -1.2682    0.0000 C   0  0  0  0  0  0  0  0  0  0  0  0
   -5.5154    0.2276    0.0000 O   0  0  0  0  0  0  0  0  0  0  0  0
   -6.7548    1.0725    0.0000 C   0  0  0  0  0  0  0  0  0  0  0  0
   -6.6427    2.5684    0.0000 C   0  0  0  0  0  0  0  0  0  0  0  0
   -8.1062    0.4217    0.0000 C   0  0  0  0  0  0  0  0  0  0  0  0
   -8.2183   -1.0741    0.0000 C   0  0  0  0  0  0  0  0  0  0  0  0
   -9.5698   -1.7249    0.0000 N   0  0  0  0  0  0  0  0  0  0  0  0
  -10.8091   -0.8799    0.0000 C   0  0  0  0  0  0  0  0  0  0  0  0
   -9.6819   -3.2207    0.0000 C   0  0  0  0  0  0  0  0  0  0  0  0
   -6.9790   -1.9191    0.0000 C   0  0  0  0  0  0  0  0  0  0  0  0
   -7.0910   -3.4149    0.0000 O   0  0  0  0  0  0  0  0  0  0  0  0
   -3.3705    0.0000    0.0000 C   0  0  0  0  0  0  0  0  0  0  0  0
   -4.6098   -0.8450    0.0000 C   0  0  0  0  0  0  0  0  0  0  0  0
   -4.6098    0.8450    0.0000 O   0  0  0  0  0  0  0  0  0  0  0  0
   -3.0367    1.4624    0.0000 C   0  0  0  0  0  0  0  0  0  0  0  0
   -2.1015    2.6351    0.0000 C   0  0  0  0  0  0  0  0  0  0  0  0
   -3.0367    3.8079    0.0000 C   0  0  0  0  0  0  0  0  0  0  0  0
   -0.7500    3.2860    0.0000 C   0  0  0  0  0  0  0  0  0  0  0  0
   -1.0838    4.7484    0.0000 O   0  0  0  0  0  0  0  0  0  0  0  0
    0.7500    3.2860    0.0000 C   0  0  0  0  0  0  0  0  0  0  0  0
    1.0838    4.7484    0.0000 C   0  0  0  0  0  0  0  0  0  0  0  0
    2.1015    2.6351    0.0000 C   0  0  0  0  0  0  0  0  0  0  0  0
    3.0367    3.8079    0.0000 O   0  0  0  0  0  0  0  0  0  0  0  0
    3.0367    1.4624    0.0000 C   0  0  0  0  0  0  0  0  0  0  0  0
    3.7867    2.7614    0.0000 C   0  0  0  0  0  0  0  0  0  0  0  0
    4.5199    1.2388    0.0000 O   0  0  0  0  0  0  0  0  0  0  0  0
  1  2  1  0
  3  2  1  1
  3  4  1  0
  4  5  1  0
  5  6  2  0
  5  7  1  0
  7  8  1  6
  7  9  1  0
  9 10  1  1
 11 10  1  6
 11 12  1  0
 12 13  1  0
 13 14  1  1
 13 15  1  0
 15 16  1  0
 13 17  1  0
 17 18  1  6
 17 19  1  0
 19 20  1  1
 19 21  1  0
  9 22  1  0
 22 23  1  1
 22 24  1  0
 24 25  1  1
 26 25  1  1
 26 27  1  0
 27 28  1  0
 28 29  1  1
 28 30  1  0
 30 31  1  0
 31 32  1  1
 32 33  1  0
 32 34  1  0
 31 35  1  0
 35 36  1  6
 24 37  1  0
 37 38  1  1
 37 39  1  0
 37 40  1  0
 40 41  1  0
 41 42  1  1
 41 43  1  0
 43 44  2  0
 43 45  1  0
 45 46  1  6
 45 47  1  0
 47 48  1  6
 47 49  1  0
 49 50  1  1
 49 51  1  0
 49  3  1  0
 21 11  1  0
 35 26  1  0
M  END
>  <ChEMBL_IDs>  (247) 
CHEMBL4062347

>  <target_organism>  (247) 
Hepatitis C virus,None

>  <target_molecule_pref_name>  (247) 
nan

>  <# Known Targets>  (247) 
nan

>  <Known Targets>  (247) 
nan

>  <smiles>  (247) 
CC[C@H]1OC(=O)[C@H](C)[C@@H](O[C@H]2C[C@@](C)(OC)[C@@H](O)[C@H](C)O2)[C@@H](C)[C@@H](O[C@@H]2O[C@H](C)C[C@H](N(C)C)[C@H]2O)[C@](C)(O)C[C@@H](C)C(=O)[C@H](C)[C@H](O)[C@]1(C)O

$$$$

     RDKit          2D

 51 53  0  0  0  0  0  0  0  0999 V2000
    5.6205   -1.2990    0.0000 C   0  0  0  0  0  0  0  0  0  0  0  0
    4.8705    0.0000    0.0000 C   0  0  0  0  0  0  0  0  0  0  0  0
    3.3705    0.0000    0.0000 C   0  0  0  0  0  0  0  0  0  0  0  0
    3.0367   -1.4624    0.0000 O   0  0  0  0  0  0  0  0  0  0  0  0
    2.1015   -2.6351    0.0000 C   0  0  0  0  0  0  0  0  0  0  0  0
    3.0367   -3.8079    0.0000 O   0  0  0  0  0  0  0  0  0  0  0  0
    0.7500   -3.2860    0.0000 C   0  0  0  0  0  0  0  0  0  0  0  0
    1.3600   -4.4903    0.0000 C   0  0  0  0  0  0  0  0  0  0  0  0
   -0.7500   -3.2860    0.0000 C   0  0  0  0  0  0  0  0  0  0  0  0
   -1.0838   -4.7484    0.0000 O   0  0  0  0  0  0  0  0  0  0  0  0
    0.0158   -5.7686    0.0000 C   0  0  0  0  0  0  0  0  0  0  0  0
   -0.3180   -7.2310    0.0000 C   0  0  0  0  0  0  0  0  0  0  0  0
    0.7816   -8.2513    0.0000 C   0  0  0  0  0  0  0  0  0  0  0  0
    1.4659   -9.5861    0.0000 C   0  0  0  0  0  0  0  0  0  0  0  0
   -0.4141   -9.1570    0.0000 O   0  0  0  0  0  0  0  0  0  0  0  0
    2.2150   -7.8091    0.0000 C   0  0  0  0  0  0  0  0  0  0  0  0
    3.3145   -8.8294    0.0000 O   0  0  0  0  0  0  0  0  0  0  0  0
    2.5487   -6.3467    0.0000 C   0  0  0  0  0  0  0  0  0  0  0  0
    3.9821   -5.9046    0.0000 C   0  0  0  0  0  0  0  0  0  0  0  0
    1.4492   -5.3265    0.0000 O   0  0  0  0  0  0  0  0  0  0  0  0
   -2.1015   -2.6351    0.0000 C   0  0  0  0  0  0  0  0  0  0  0  0
   -3.0367   -3.8079    0.0000 C   0  0  0  0  0  0  0  0  0  0  0  0
   -3.0367   -1.4624    0.0000 C   0  0  0  0  0  0  0  0  0  0  0  0
   -4.3881   -2.1132    0.0000 O   0  0  0  0  0  0  0  0  0  0  0  0
   -5.6275   -1.2682    0.0000 C   0  0  0  0  0  0  0  0  0  0  0  0
   -5.5154    0.2276    0.0000 O   0  0  0  0  0  0  0  0  0  0  0  0
   -6.7548    1.0725    0.0000 C   0  0  0  0  0  0  0  0  0  0  0  0
   -6.6427    2.5684    0.0000 C   0  0  0  0  0  0  0  0  0  0  0  0
   -8.1062    0.4217    0.0000 C   0  0  0  0  0  0  0  0  0  0  0  0
   -8.2183   -1.0741    0.0000 C   0  0  0  0  0  0  0  0  0  0  0  0
   -9.5698   -1.7249    0.0000 N   0  0  0  0  0  0  0  0  0  0  0  0
  -10.8091   -0.8799    0.0000 C   0  0  0  0  0  0  0  0  0  0  0  0
   -9.6819   -3.2207    0.0000 C   0  0  0  0  0  0  0  0  0  0  0  0
   -6.9790   -1.9191    0.0000 C   0  0  0  0  0  0  0  0  0  0  0  0
   -7.0910   -3.4149    0.0000 O   0  0  0  0  0  0  0  0  0  0  0  0
   -3.3705    0.0000    0.0000 C   0  0  0  0  0  0  0  0  0  0  0  0
   -4.6098   -0.8450    0.0000 C   0  0  0  0  0  0  0  0  0  0  0  0
   -4.6098    0.8450    0.0000 O   0  0  0  0  0  0  0  0  0  0  0  0
   -5.3904    0.6832    0.0000 C   0  0  0  0  0  0  0  0  0  0  0  0
   -3.0367    1.4624    0.0000 C   0  0  0  0  0  0  0  0  0  0  0  0
   -2.1015    2.6351    0.0000 C   0  0  0  0  0  0  0  0  0  0  0  0
   -3.0367    3.8079    0.0000 C   0  0  0  0  0  0  0  0  0  0  0  0
   -0.7500    3.2860    0.0000 C   0  0  0  0  0  0  0  0  0  0  0  0
   -1.0838    4.7484    0.0000 O   0  0  0  0  0  0  0  0  0  0  0  0
    0.7500    3.2860    0.0000 C   0  0  0  0  0  0  0  0  0  0  0  0
    1.0838    4.7484    0.0000 C   0  0  0  0  0  0  0  0  0  0  0  0
    2.1015    2.6351    0.0000 C   0  0  0  0  0  0  0  0  0  0  0  0
    3.0367    3.8079    0.0000 O   0  0  0  0  0  0  0  0  0  0  0  0
    3.0367    1.4624    0.0000 C   0  0  0  0  0  0  0  0  0  0  0  0
    3.7867    2.7614    0.0000 C   0  0  0  0  0  0  0  0  0  0  0  0
    4.5199    1.2388    0.0000 O   0  0  0  0  0  0  0  0  0  0  0  0
  1  2  1  0
  3  2  1  1
  3  4  1  0
  4  5  1  0
  5  6  2  0
  5  7  1  0
  7  8  1  6
  7  9  1  0
  9 10  1  1
 10 11  1  0
 11 12  1  0
 12 13  1  0
 13 14  1  0
 13 15  1  0
 13 16  1  0
 16 17  1  0
 16 18  1  0
 18 19  1  0
 18 20  1  0
  9 21  1  0
 21 22  1  6
 21 23  1  0
 23 24  1  1
 24 25  1  0
 25 26  1  0
 26 27  1  0
 27 28  1  0
 27 29  1  0
 29 30  1  0
 30 31  1  0
 31 32  1  0
 31 33  1  0
 30 34  1  0
 34 35  1  0
 23 36  1  0
 36 37  1  1
 36 38  1  0
 38 39  1  0
 36 40  1  0
 40 41  1  0
 41 42  1  1
 41 43  1  0
 43 44  2  0
 43 45  1  0
 45 46  1  6
 45 47  1  0
 47 48  1  1
 47 49  1  0
 49 50  1  1
 49 51  1  0
 49  3  1  0
 20 11  1  0
 34 25  1  0
M  END
>  <ChEMBL_IDs>  (248) 
CHEMBL435018

>  <target_organism>  (248) 
Rattus norvegicus

>  <target_molecule_pref_name>  (248) 
nan

>  <# Known Targets>  (248) 
nan

>  <Known Targets>  (248) 
nan

>  <smiles>  (248) 
CC[C@H]1OC(=O)[C@H](C)[C@@H](OC2CC(C)(O)C(O)C(C)O2)[C@H](C)[C@@H](OC2OC(C)CC(N(C)C)C2O)[C@](C)(OC)C[C@@H](C)C(=O)[C@H](C)[C@@H](O)[C@]1(C)O

$$$$

     RDKit          2D

 51 53  0  0  0  0  0  0  0  0999 V2000
    5.6205   -1.2990    0.0000 C   0  0  0  0  0  0  0  0  0  0  0  0
    4.8705    0.0000    0.0000 C   0  0  0  0  0  0  0  0  0  0  0  0
    3.3705    0.0000    0.0000 C   0  0  0  0  0  0  0  0  0  0  0  0
    3.0367   -1.4624    0.0000 O   0  0  0  0  0  0  0  0  0  0  0  0
    2.1015   -2.6351    0.0000 C   0  0  0  0  0  0  0  0  0  0  0  0
    3.0367   -3.8079    0.0000 O   0  0  0  0  0  0  0  0  0  0  0  0
    0.7500   -3.2860    0.0000 C   0  0  0  0  0  0  0  0  0  0  0  0
    1.3600   -4.4903    0.0000 C   0  0  0  0  0  0  0  0  0  0  0  0
   -0.7500   -3.2860    0.0000 C   0  0  0  0  0  0  0  0  0  0  0  0
   -1.0838   -4.7484    0.0000 O   0  0  0  0  0  0  0  0  0  0  0  0
    0.0158   -5.7686    0.0000 C   0  0  0  0  0  0  0  0  0  0  0  0
   -0.3180   -7.2310    0.0000 C   0  0  0  0  0  0  0  0  0  0  0  0
    0.7816   -8.2513    0.0000 C   0  0  0  0  0  0  0  0  0  0  0  0
    1.4659   -9.5861    0.0000 C   0  0  0  0  0  0  0  0  0  0  0  0
   -0.4141   -9.1570    0.0000 O   0  0  0  0  0  0  0  0  0  0  0  0
   -0.2276  -10.6453    0.0000 C   0  0  0  0  0  0  0  0  0  0  0  0
    2.2150   -7.8091    0.0000 C   0  0  0  0  0  0  0  0  0  0  0  0
    3.3145   -8.8294    0.0000 O   0  0  0  0  0  0  0  0  0  0  0  0
    2.5487   -6.3467    0.0000 C   0  0  0  0  0  0  0  0  0  0  0  0
    3.9821   -5.9046    0.0000 C   0  0  0  0  0  0  0  0  0  0  0  0
    1.4492   -5.3265    0.0000 O   0  0  0  0  0  0  0  0  0  0  0  0
   -2.1015   -2.6351    0.0000 C   0  0  0  0  0  0  0  0  0  0  0  0
   -3.0367   -3.8079    0.0000 C   0  0  0  0  0  0  0  0  0  0  0  0
   -3.0367   -1.4624    0.0000 C   0  0  0  0  0  0  0  0  0  0  0  0
   -4.3881   -2.1132    0.0000 O   0  0  0  0  0  0  0  0  0  0  0  0
   -5.6275   -1.2682    0.0000 C   0  0  0  0  0  0  0  0  0  0  0  0
   -5.5154    0.2276    0.0000 O   0  0  0  0  0  0  0  0  0  0  0  0
   -6.7548    1.0725    0.0000 C   0  0  0  0  0  0  0  0  0  0  0  0
   -6.6427    2.5684    0.0000 C   0  0  0  0  0  0  0  0  0  0  0  0
   -8.1062    0.4217    0.0000 C   0  0  0  0  0  0  0  0  0  0  0  0
   -8.2183   -1.0741    0.0000 C   0  0  0  0  0  0  0  0  0  0  0  0
   -9.5698   -1.7249    0.0000 N   0  0  0  0  0  0  0  0  0  0  0  0
  -10.8091   -0.8799    0.0000 C   0  0  0  0  0  0  0  0  0  0  0  0
   -9.6819   -3.2207    0.0000 C   0  0  0  0  0  0  0  0  0  0  0  0
   -6.9790   -1.9191    0.0000 C   0  0  0  0  0  0  0  0  0  0  0  0
   -7.0910   -3.4149    0.0000 O   0  0  0  0  0  0  0  0  0  0  0  0
   -3.3705    0.0000    0.0000 C   0  0  0  0  0  0  0  0  0  0  0  0
   -4.6098   -0.8450    0.0000 C   0  0  0  0  0  0  0  0  0  0  0  0
   -4.6098    0.8450    0.0000 O   0  0  0  0  0  0  0  0  0  0  0  0
   -3.0367    1.4624    0.0000 C   0  0  0  0  0  0  0  0  0  0  0  0
   -2.1015    2.6351    0.0000 C   0  0  0  0  0  0  0  0  0  0  0  0
   -3.0367    3.8079    0.0000 C   0  0  0  0  0  0  0  0  0  0  0  0
   -0.7500    3.2860    0.0000 C   0  0  0  0  0  0  0  0  0  0  0  0
   -1.0838    4.7484    0.0000 N   0  0  0  0  0  0  0  0  0  0  0  0
    0.7500    3.2860    0.0000 C   0  0  0  0  0  0  0  0  0  0  0  0
    1.0838    4.7484    0.0000 C   0  0  0  0  0  0  0  0  0  0  0  0
    2.1015    2.6351    0.0000 C   0  0  0  0  0  0  0  0  0  0  0  0
    3.0367    3.8079    0.0000 O   0  0  0  0  0  0  0  0  0  0  0  0
    3.0367    1.4624    0.0000 C   0  0  0  0  0  0  0  0  0  0  0  0
    3.7867    2.7614    0.0000 C   0  0  0  0  0  0  0  0  0  0  0  0
    4.5199    1.2388    0.0000 O   0  0  0  0  0  0  0  0  0  0  0  0
  1  2  1  0
  2  3  1  0
  3  4  1  0
  4  5  1  0
  5  6  2  0
  5  7  1  0
  7  8  1  0
  7  9  1  0
  9 10  1  0
 10 11  1  0
 11 12  1  0
 12 13  1  0
 13 14  1  0
 13 15  1  0
 15 16  1  0
 13 17  1  0
 17 18  1  0
 17 19  1  0
 19 20  1  0
 19 21  1  0
  9 22  1  0
 22 23  1  0
 22 24  1  0
 24 25  1  0
 25 26  1  0
 26 27  1  0
 27 28  1  0
 28 29  1  0
 28 30  1  0
 30 31  1  0
 31 32  1  0
 32 33  1  0
 32 34  1  0
 31 35  1  0
 35 36  1  0
 24 37  1  0
 37 38  1  0
 37 39  1  0
 37 40  1  0
 40 41  1  0
 41 42  1  0
 41 43  1  0
 43 44  2  0
 43 45  1  0
 45 46  1  0
 45 47  1  0
 47 48  1  0
 47 49  1  0
 49 50  1  0
 49 51  1  0
 49  3  1  0
 21 11  1  0
 35 26  1  0
M  END
>  <ChEMBL_IDs>  (249) 
nan

>  <target_organism>  (249) 
nan

>  <target_molecule_pref_name>  (249) 
nan

>  <# Known Targets>  (249) 
nan

>  <Known Targets>  (249) 
nan

>  <smiles>  (249) 
CCC1OC(=O)C(C)C(OC2CC(C)(OC)C(O)C(C)O2)C(C)C(OC2OC(C)CC(N(C)C)C2O)C(C)(O)CC(C)C(=N)C(C)C(O)C1(C)O

$$$$

     RDKit          2D

 51 53  0  0  0  0  0  0  0  0999 V2000
    5.6205   -1.2990    0.0000 C   0  0  0  0  0  0  0  0  0  0  0  0
    4.8705    0.0000    0.0000 C   0  0  0  0  0  0  0  0  0  0  0  0
    3.3705    0.0000    0.0000 C   0  0  0  0  0  0  0  0  0  0  0  0
    3.0367   -1.4624    0.0000 O   0  0  0  0  0  0  0  0  0  0  0  0
    2.1015   -2.6351    0.0000 C   0  0  0  0  0  0  0  0  0  0  0  0
    3.0367   -3.8079    0.0000 O   0  0  0  0  0  0  0  0  0  0  0  0
    0.7500   -3.2860    0.0000 C   0  0  0  0  0  0  0  0  0  0  0  0
    1.3600   -4.4903    0.0000 C   0  0  0  0  0  0  0  0  0  0  0  0
   -0.7500   -3.2860    0.0000 C   0  0  0  0  0  0  0  0  0  0  0  0
   -1.0838   -4.7484    0.0000 O   0  0  0  0  0  0  0  0  0  0  0  0
    0.0158   -5.7686    0.0000 C   0  0  0  0  0  0  0  0  0  0  0  0
   -0.3180   -7.2310    0.0000 C   0  0  0  0  0  0  0  0  0  0  0  0
    0.7816   -8.2513    0.0000 C   0  0  0  0  0  0  0  0  0  0  0  0
    1.4659   -9.5861    0.0000 C   0  0  0  0  0  0  0  0  0  0  0  0
   -0.4141   -9.1570    0.0000 O   0  0  0  0  0  0  0  0  0  0  0  0
   -0.2276  -10.6453    0.0000 C   0  0  0  0  0  0  0  0  0  0  0  0
    2.2150   -7.8091    0.0000 C   0  0  0  0  0  0  0  0  0  0  0  0
    3.3145   -8.8294    0.0000 O   0  0  0  0  0  0  0  0  0  0  0  0
    2.5487   -6.3467    0.0000 C   0  0  0  0  0  0  0  0  0  0  0  0
    3.9821   -5.9046    0.0000 C   0  0  0  0  0  0  0  0  0  0  0  0
    1.4492   -5.3265    0.0000 O   0  0  0  0  0  0  0  0  0  0  0  0
   -2.1015   -2.6351    0.0000 C   0  0  0  0  0  0  0  0  0  0  0  0
   -3.0367   -3.8079    0.0000 C   0  0  0  0  0  0  0  0  0  0  0  0
   -3.0367   -1.4624    0.0000 C   0  0  0  0  0  0  0  0  0  0  0  0
   -4.3881   -2.1132    0.0000 O   0  0  0  0  0  0  0  0  0  0  0  0
   -5.6275   -1.2682    0.0000 C   0  0  0  0  0  0  0  0  0  0  0  0
   -5.5154    0.2276    0.0000 O   0  0  0  0  0  0  0  0  0  0  0  0
   -6.7548    1.0725    0.0000 C   0  0  0  0  0  0  0  0  0  0  0  0
   -6.6427    2.5684    0.0000 C   0  0  0  0  0  0  0  0  0  0  0  0
   -8.1062    0.4217    0.0000 C   0  0  0  0  0  0  0  0  0  0  0  0
   -8.2183   -1.0741    0.0000 C   0  0  0  0  0  0  0  0  0  0  0  0
   -9.5698   -1.7249    0.0000 N   0  0  0  0  0  0  0  0  0  0  0  0
  -10.8091   -0.8799    0.0000 C   0  0  0  0  0  0  0  0  0  0  0  0
   -9.6819   -3.2207    0.0000 C   0  0  0  0  0  0  0  0  0  0  0  0
   -6.9790   -1.9191    0.0000 C   0  0  0  0  0  0  0  0  0  0  0  0
   -7.0910   -3.4149    0.0000 O   0  0  0  0  0  0  0  0  0  0  0  0
   -3.3705    0.0000    0.0000 C   0  0  0  0  0  0  0  0  0  0  0  0
   -4.6098   -0.8450    0.0000 C   0  0  0  0  0  0  0  0  0  0  0  0
   -4.6098    0.8450    0.0000 O   0  0  0  0  0  0  0  0  0  0  0  0
   -3.0367    1.4624    0.0000 C   0  0  0  0  0  0  0  0  0  0  0  0
   -2.1015    2.6351    0.0000 C   0  0  0  0  0  0  0  0  0  0  0  0
   -3.0367    3.8079    0.0000 C   0  0  0  0  0  0  0  0  0  0  0  0
   -0.7500    3.2860    0.0000 C   0  0  0  0  0  0  0  0  0  0  0  0
   -1.0838    4.7484    0.0000 N   0  0  0  0  0  0  0  0  0  0  0  0
   -2.5171    5.1905    0.0000 O   0  0  0  0  0  0  0  0  0  0  0  0
    0.7500    3.2860    0.0000 C   0  0  0  0  0  0  0  0  0  0  0  0
    1.0838    4.7484    0.0000 C   0  0  0  0  0  0  0  0  0  0  0  0
    2.1015    2.6351    0.0000 C   0  0  0  0  0  0  0  0  0  0  0  0
    3.0367    3.8079    0.0000 O   0  0  0  0  0  0  0  0  0  0  0  0
    3.0367    1.4624    0.0000 C   0  0  0  0  0  0  0  0  0  0  0  0
    4.3881    2.1132    0.0000 C   0  0  0  0  0  0  0  0  0  0  0  0
  1  2  1  0
  3  2  1  1
  3  4  1  0
  4  5  1  0
  5  6  2  0
  5  7  1  0
  7  8  1  6
  7  9  1  0
  9 10  1  1
 10 11  1  0
 11 12  1  0
 12 13  1  0
 13 14  1  0
 13 15  1  0
 15 16  1  0
 13 17  1  0
 17 18  1  0
 17 19  1  0
 19 20  1  0
 19 21  1  0
  9 22  1  0
 22 23  1  6
 22 24  1  0
 24 25  1  1
 25 26  1  0
 26 27  1  0
 27 28  1  0
 28 29  1  0
 28 30  1  0
 30 31  1  0
 31 32  1  0
 32 33  1  0
 32 34  1  0
 31 35  1  0
 35 36  1  0
 24 37  1  0
 37 38  1  1
 37 39  1  0
 37 40  1  0
 40 41  1  0
 41 42  1  1
 41 43  1  0
 43 44  2  0
 44 45  1  0
 43 46  1  0
 46 47  1  6
 46 48  1  0
 48 49  1  1
 48 50  1  0
 50 51  1  1
 50  3  1  0
 21 11  1  0
 35 26  1  0
M  END
>  <ChEMBL_IDs>  (250) 
CHEMBL317239

>  <target_organism>  (250) 
None

>  <target_molecule_pref_name>  (250) 
nan

>  <# Known Targets>  (250) 
nan

>  <Known Targets>  (250) 
nan

>  <smiles>  (250) 
CC[C@H]1OC(=O)[C@H](C)[C@@H](OC2CC(C)(OC)C(O)C(C)O2)[C@H](C)[C@@H](OC2OC(C)CC(N(C)C)C2O)[C@](C)(O)C[C@@H](C)/C(=N\O)[C@H](C)[C@@H](O)[C@H]1C

$$$$

     RDKit          2D

 52 54  0  0  0  0  0  0  0  0999 V2000
    5.8573   -1.2990    0.0000 C   0  0  0  0  0  0  0  0  0  0  0  0
    5.1073    0.0000    0.0000 C   0  0  0  0  0  0  0  0  0  0  0  0
    3.6073    0.0000    0.0000 C   0  0  0  0  0  0  0  0  0  0  0  0
    3.2954    1.4672    0.0000 O   0  0  0  0  0  0  0  0  0  0  0  0
    2.4138    2.6807    0.0000 C   0  0  0  0  0  0  0  0  0  0  0  0
    3.4175    3.7955    0.0000 O   0  0  0  0  0  0  0  0  0  0  0  0
    1.1147    3.4307    0.0000 C   0  0  0  0  0  0  0  0  0  0  0  0
    1.8302    4.5756    0.0000 C   0  0  0  0  0  0  0  0  0  0  0  0
   -0.3771    3.5875    0.0000 C   0  0  0  0  0  0  0  0  0  0  0  0
   -0.5339    5.0793    0.0000 O   0  0  0  0  0  0  0  0  0  0  0  0
    0.6797    5.9610    0.0000 C   0  0  0  0  0  0  0  0  0  0  0  0
    0.5229    7.4528    0.0000 C   0  0  0  0  0  0  0  0  0  0  0  0
    1.7364    8.3345    0.0000 C   0  0  0  0  0  0  0  0  0  0  0  0
    2.5752    9.5780    0.0000 C   0  0  0  0  0  0  0  0  0  0  0  0
    0.6574    9.3764    0.0000 O   0  0  0  0  0  0  0  0  0  0  0  0
    1.0203   10.8319    0.0000 C   0  0  0  0  0  0  0  0  0  0  0  0
    3.1067    7.7244    0.0000 C   0  0  0  0  0  0  0  0  0  0  0  0
    4.3202    8.6060    0.0000 O   0  0  0  0  0  0  0  0  0  0  0  0
    3.2635    6.2326    0.0000 C   0  0  0  0  0  0  0  0  0  0  0  0
    4.6338    5.6225    0.0000 C   0  0  0  0  0  0  0  0  0  0  0  0
    2.0500    5.3509    0.0000 O   0  0  0  0  0  0  0  0  0  0  0  0
   -1.8037    3.1240    0.0000 C   0  0  0  0  0  0  0  0  0  0  0  0
   -2.5537    4.4231    0.0000 C   0  0  0  0  0  0  0  0  0  0  0  0
   -2.9184    2.1203    0.0000 C   0  0  0  0  0  0  0  0  0  0  0  0
   -4.1319    3.0020    0.0000 O   0  0  0  0  0  0  0  0  0  0  0  0
   -5.5022    2.3919    0.0000 C   0  0  0  0  0  0  0  0  0  0  0  0
   -6.7157    3.2736    0.0000 O   0  0  0  0  0  0  0  0  0  0  0  0
   -8.0861    2.6635    0.0000 C   0  0  0  0  0  0  0  0  0  0  0  0
   -9.2996    3.5451    0.0000 C   0  0  0  0  0  0  0  0  0  0  0  0
   -8.2428    1.1717    0.0000 C   0  0  0  0  0  0  0  0  0  0  0  0
   -7.0293    0.2900    0.0000 C   0  0  0  0  0  0  0  0  0  0  0  0
   -7.1861   -1.2018    0.0000 N   0  0  0  0  0  0  0  0  0  0  0  0
   -8.5564   -1.8119    0.0000 C   0  0  0  0  0  0  0  0  0  0  0  0
   -5.6590    0.9001    0.0000 C   0  0  0  0  0  0  0  0  0  0  0  0
   -5.0760    0.3564    0.0000 O   0  0  0  0  0  0  0  0  0  0  0  0
   -3.5285    0.7500    0.0000 C   0  0  0  0  0  0  0  0  0  0  0  0
   -4.2257    0.3635    0.0000 C   0  0  0  0  0  0  0  0  0  0  0  0
   -4.5705    1.8290    0.0000 O   0  0  0  0  0  0  0  0  0  0  0  0
   -5.8948    1.1247    0.0000 C   0  0  0  0  0  0  0  0  0  0  0  0
   -3.5285   -0.7500    0.0000 C   0  0  0  0  0  0  0  0  0  0  0  0
   -2.9184   -2.1203    0.0000 C   0  0  0  0  0  0  0  0  0  0  0  0
   -4.1319   -3.0020    0.0000 C   0  0  0  0  0  0  0  0  0  0  0  0
   -1.8037   -3.1240    0.0000 C   0  0  0  0  0  0  0  0  0  0  0  0
   -2.5537   -4.4231    0.0000 O   0  0  0  0  0  0  0  0  0  0  0  0
   -0.3771   -3.5875    0.0000 N   0  0  0  0  0  0  0  0  0  0  0  0
    1.1147   -3.4307    0.0000 C   0  0  0  0  0  0  0  0  0  0  0  0
    1.5782   -4.8573    0.0000 C   0  0  0  0  0  0  0  0  0  0  0  0
    2.4138   -2.6807    0.0000 C   0  0  0  0  0  0  0  0  0  0  0  0
    3.4175   -3.7955    0.0000 O   0  0  0  0  0  0  0  0  0  0  0  0
    3.2954   -1.4672    0.0000 C   0  0  0  0  0  0  0  0  0  0  0  0
    4.7726   -1.2067    0.0000 C   0  0  0  0  0  0  0  0  0  0  0  0
    4.0903   -2.7393    0.0000 O   0  0  0  0  0  0  0  0  0  0  0  0
  1  2  1  0
  3  2  1  6
  3  4  1  0
  4  5  1  0
  5  6  2  0
  5  7  1  0
  7  8  1  1
  7  9  1  0
  9 10  1  6
 11 10  1  1
 11 12  1  0
 12 13  1  0
 13 14  1  6
 13 15  1  0
 15 16  1  0
 13 17  1  0
 17 18  1  1
 17 19  1  0
 19 20  1  6
 19 21  1  0
  9 22  1  0
 22 23  1  1
 22 24  1  0
 24 25  1  6
 26 25  1  1
 26 27  1  0
 27 28  1  0
 28 29  1  1
 28 30  1  0
 30 31  1  0
 31 32  1  1
 32 33  1  0
 31 34  1  0
 34 35  1  6
 24 36  1  0
 36 37  1  6
 36 38  1  0
 38 39  1  0
 36 40  1  0
 40 41  1  0
 41 42  1  6
 41 43  1  0
 43 44  2  0
 43 45  1  0
 45 46  1  0
 46 47  1  1
 46 48  1  0
 48 49  1  6
 48 50  1  0
 50 51  1  6
 50 52  1  0
 50  3  1  0
 21 11  1  0
 34 26  1  0
M  END
>  <ChEMBL_IDs>  (251) 
CHEMBL2022714

>  <target_organism>  (251) 
Staphylococcus aureus

>  <target_molecule_pref_name>  (251) 
nan

>  <# Known Targets>  (251) 
nan

>  <Known Targets>  (251) 
nan

>  <smiles>  (251) 
CC[C@H]1OC(=O)[C@H](C)[C@@H](O[C@H]2C[C@@](C)(OC)[C@@H](O)[C@H](C)O2)[C@H](C)[C@@H](O[C@@H]2O[C@H](C)C[C@H](NC)[C@H]2O)[C@](C)(OC)C[C@@H](C)C(=O)N[C@H](C)[C@@H](O)[C@]1(C)O

$$$$

     RDKit          2D

 52 54  0  0  0  0  0  0  0  0999 V2000
    5.6205   -1.2990    0.0000 C   0  0  0  0  0  0  0  0  0  0  0  0
    4.8705    0.0000    0.0000 C   0  0  0  0  0  0  0  0  0  0  0  0
    3.3705    0.0000    0.0000 C   0  0  0  0  0  0  0  0  0  0  0  0
    3.0367   -1.4624    0.0000 O   0  0  0  0  0  0  0  0  0  0  0  0
    2.1015   -2.6351    0.0000 C   0  0  0  0  0  0  0  0  0  0  0  0
    3.0367   -3.8079    0.0000 O   0  0  0  0  0  0  0  0  0  0  0  0
    0.7500   -3.2860    0.0000 C   0  0  0  0  0  0  0  0  0  0  0  0
    1.3600   -4.4903    0.0000 C   0  0  0  0  0  0  0  0  0  0  0  0
   -0.7500   -3.2860    0.0000 C   0  0  0  0  0  0  0  0  0  0  0  0
   -1.0838   -4.7484    0.0000 O   0  0  0  0  0  0  0  0  0  0  0  0
    0.0158   -5.7686    0.0000 C   0  0  0  0  0  0  0  0  0  0  0  0
   -0.3180   -7.2310    0.0000 C   0  0  0  0  0  0  0  0  0  0  0  0
    0.7816   -8.2513    0.0000 C   0  0  0  0  0  0  0  0  0  0  0  0
    1.4659   -9.5861    0.0000 C   0  0  0  0  0  0  0  0  0  0  0  0
   -0.4141   -9.1570    0.0000 O   0  0  0  0  0  0  0  0  0  0  0  0
   -0.2276  -10.6453    0.0000 C   0  0  0  0  0  0  0  0  0  0  0  0
    2.2150   -7.8091    0.0000 C   0  0  0  0  0  0  0  0  0  0  0  0
    3.3145   -8.8294    0.0000 O   0  0  0  0  0  0  0  0  0  0  0  0
    2.5487   -6.3467    0.0000 C   0  0  0  0  0  0  0  0  0  0  0  0
    3.9821   -5.9046    0.0000 C   0  0  0  0  0  0  0  0  0  0  0  0
    1.4492   -5.3265    0.0000 O   0  0  0  0  0  0  0  0  0  0  0  0
   -2.1015   -2.6351    0.0000 C   0  0  0  0  0  0  0  0  0  0  0  0
   -3.0367   -3.8079    0.0000 C   0  0  0  0  0  0  0  0  0  0  0  0
   -3.0367   -1.4624    0.0000 C   0  0  0  0  0  0  0  0  0  0  0  0
   -4.3881   -2.1132    0.0000 O   0  0  0  0  0  0  0  0  0  0  0  0
   -5.6275   -1.2682    0.0000 C   0  0  0  0  0  0  0  0  0  0  0  0
   -5.5154    0.2276    0.0000 O   0  0  0  0  0  0  0  0  0  0  0  0
   -6.7548    1.0725    0.0000 C   0  0  0  0  0  0  0  0  0  0  0  0
   -6.6427    2.5684    0.0000 C   0  0  0  0  0  0  0  0  0  0  0  0
   -8.1062    0.4217    0.0000 C   0  0  0  0  0  0  0  0  0  0  0  0
   -8.2183   -1.0741    0.0000 C   0  0  0  0  0  0  0  0  0  0  0  0
   -9.5698   -1.7249    0.0000 N   0  0  0  0  0  0  0  0  0  0  0  0
  -10.8091   -0.8799    0.0000 C   0  0  0  0  0  0  0  0  0  0  0  0
   -9.6819   -3.2207    0.0000 C   0  0  0  0  0  0  0  0  0  0  0  0
   -6.9790   -1.9191    0.0000 C   0  0  0  0  0  0  0  0  0  0  0  0
   -7.0910   -3.4149    0.0000 O   0  0  0  0  0  0  0  0  0  0  0  0
   -3.3705    0.0000    0.0000 C   0  0  0  0  0  0  0  0  0  0  0  0
   -4.6098   -0.8450    0.0000 C   0  0  0  0  0  0  0  0  0  0  0  0
   -4.6098    0.8450    0.0000 O   0  0  0  0  0  0  0  0  0  0  0  0
   -3.0367    1.4624    0.0000 C   0  0  0  0  0  0  0  0  0  0  0  0
   -2.1015    2.6351    0.0000 C   0  0  0  0  0  0  0  0  0  0  0  0
   -3.0367    3.8079    0.0000 C   0  0  0  0  0  0  0  0  0  0  0  0
   -0.7500    3.2860    0.0000 C   0  0  0  0  0  0  0  0  0  0  0  0
   -1.0838    4.7484    0.0000 N   0  0  0  0  0  0  0  0  0  0  0  0
   -2.5171    5.1905    0.0000 O   0  0  0  0  0  0  0  0  0  0  0  0
    0.7500    3.2860    0.0000 C   0  0  0  0  0  0  0  0  0  0  0  0
    1.0838    4.7484    0.0000 C   0  0  0  0  0  0  0  0  0  0  0  0
    2.1015    2.6351    0.0000 C   0  0  0  0  0  0  0  0  0  0  0  0
    3.0367    3.8079    0.0000 O   0  0  0  0  0  0  0  0  0  0  0  0
    3.0367    1.4624    0.0000 C   0  0  0  0  0  0  0  0  0  0  0  0
    3.7867    2.7614    0.0000 C   0  0  0  0  0  0  0  0  0  0  0  0
    4.5199    1.2388    0.0000 O   0  0  0  0  0  0  0  0  0  0  0  0
  1  2  1  0
  3  2  1  1
  3  4  1  0
  4  5  1  0
  5  6  2  0
  5  7  1  0
  7  8  1  6
  7  9  1  0
  9 10  1  1
 10 11  1  0
 11 12  1  0
 12 13  1  0
 13 14  1  0
 13 15  1  0
 15 16  1  0
 13 17  1  0
 17 18  1  0
 17 19  1  0
 19 20  1  0
 19 21  1  0
  9 22  1  0
 22 23  1  6
 22 24  1  0
 24 25  1  1
 25 26  1  0
 26 27  1  0
 27 28  1  0
 28 29  1  0
 28 30  1  0
 30 31  1  0
 31 32  1  0
 32 33  1  0
 32 34  1  0
 31 35  1  0
 35 36  1  0
 24 37  1  0
 37 38  1  1
 37 39  1  0
 37 40  1  0
 40 41  1  0
 41 42  1  1
 41 43  1  0
 43 44  2  0
 44 45  1  0
 43 46  1  0
 46 47  1  6
 46 48  1  0
 48 49  1  1
 48 50  1  0
 50 51  1  1
 50 52  1  0
 50  3  1  0
 21 11  1  0
 35 26  1  0
M  END
>  <ChEMBL_IDs>  (252) 
CHEMBL324443

>  <target_organism>  (252) 
None

>  <target_molecule_pref_name>  (252) 
nan

>  <# Known Targets>  (252) 
nan

>  <Known Targets>  (252) 
nan

>  <smiles>  (252) 
CC[C@H]1OC(=O)[C@H](C)[C@@H](OC2CC(C)(OC)C(O)C(C)O2)[C@H](C)[C@@H](OC2OC(C)CC(N(C)C)C2O)[C@](C)(O)C[C@@H](C)/C(=N\O)[C@H](C)[C@@H](O)[C@]1(C)O

$$$$

     RDKit          2D

 52 54  0  0  0  0  0  0  0  0999 V2000
    5.6205   -1.2990    0.0000 C   0  0  0  0  0  0  0  0  0  0  0  0
    4.8705    0.0000    0.0000 C   0  0  0  0  0  0  0  0  0  0  0  0
    3.3705    0.0000    0.0000 C   0  0  0  0  0  0  0  0  0  0  0  0
    3.0367   -1.4624    0.0000 O   0  0  0  0  0  0  0  0  0  0  0  0
    2.1015   -2.6351    0.0000 C   0  0  0  0  0  0  0  0  0  0  0  0
    3.0367   -3.8079    0.0000 O   0  0  0  0  0  0  0  0  0  0  0  0
    0.7500   -3.2860    0.0000 C   0  0  0  0  0  0  0  0  0  0  0  0
    1.3600   -4.4903    0.0000 C   0  0  0  0  0  0  0  0  0  0  0  0
   -0.7500   -3.2860    0.0000 C   0  0  0  0  0  0  0  0  0  0  0  0
   -1.0838   -4.7484    0.0000 O   0  0  0  0  0  0  0  0  0  0  0  0
    0.0158   -5.7686    0.0000 C   0  0  0  0  0  0  0  0  0  0  0  0
   -0.3180   -7.2310    0.0000 C   0  0  0  0  0  0  0  0  0  0  0  0
    0.7816   -8.2513    0.0000 C   0  0  0  0  0  0  0  0  0  0  0  0
    1.4659   -9.5861    0.0000 C   0  0  0  0  0  0  0  0  0  0  0  0
   -0.4141   -9.1570    0.0000 O   0  0  0  0  0  0  0  0  0  0  0  0
   -0.2276  -10.6453    0.0000 C   0  0  0  0  0  0  0  0  0  0  0  0
    2.2150   -7.8091    0.0000 C   0  0  0  0  0  0  0  0  0  0  0  0
    3.3145   -8.8294    0.0000 O   0  0  0  0  0  0  0  0  0  0  0  0
    2.5487   -6.3467    0.0000 C   0  0  0  0  0  0  0  0  0  0  0  0
    3.9821   -5.9046    0.0000 C   0  0  0  0  0  0  0  0  0  0  0  0
    1.4492   -5.3265    0.0000 O   0  0  0  0  0  0  0  0  0  0  0  0
   -2.1015   -2.6351    0.0000 C   0  0  0  0  0  0  0  0  0  0  0  0
   -3.0367   -3.8079    0.0000 C   0  0  0  0  0  0  0  0  0  0  0  0
   -3.0367   -1.4624    0.0000 C   0  0  0  0  0  0  0  0  0  0  0  0
   -4.3881   -2.1132    0.0000 O   0  0  0  0  0  0  0  0  0  0  0  0
   -5.6275   -1.2682    0.0000 C   0  0  0  0  0  0  0  0  0  0  0  0
   -5.5154    0.2276    0.0000 O   0  0  0  0  0  0  0  0  0  0  0  0
   -6.7548    1.0725    0.0000 C   0  0  0  0  0  0  0  0  0  0  0  0
   -6.6427    2.5684    0.0000 C   0  0  0  0  0  0  0  0  0  0  0  0
   -8.1062    0.4217    0.0000 C   0  0  0  0  0  0  0  0  0  0  0  0
   -8.2183   -1.0741    0.0000 C   0  0  0  0  0  0  0  0  0  0  0  0
   -9.5698   -1.7249    0.0000 N   0  0  0  0  0  0  0  0  0  0  0  0
  -10.8091   -0.8799    0.0000 C   0  0  0  0  0  0  0  0  0  0  0  0
   -9.6819   -3.2207    0.0000 C   0  0  0  0  0  0  0  0  0  0  0  0
   -6.9790   -1.9191    0.0000 C   0  0  0  0  0  0  0  0  0  0  0  0
   -7.0910   -3.4149    0.0000 O   0  0  0  0  0  0  0  0  0  0  0  0
   -3.3705    0.0000    0.0000 C   0  0  0  0  0  0  0  0  0  0  0  0
   -4.6098   -0.8450    0.0000 C   0  0  0  0  0  0  0  0  0  0  0  0
   -4.6098    0.8450    0.0000 O   0  0  0  0  0  0  0  0  0  0  0  0
   -3.0367    1.4624    0.0000 C   0  0  0  0  0  0  0  0  0  0  0  0
   -2.1015    2.6351    0.0000 C   0  0  0  0  0  0  0  0  0  0  0  0
   -3.0367    3.8079    0.0000 C   0  0  0  0  0  0  0  0  0  0  0  0
   -0.7500    3.2860    0.0000 C   0  0  0  0  0  0  0  0  0  0  0  0
   -1.0838    4.7484    0.0000 N   0  0  0  0  0  0  0  0  0  0  0  0
    0.0158    5.7686    0.0000 O   0  0  0  0  0  0  0  0  0  0  0  0
    0.7500    3.2860    0.0000 C   0  0  0  0  0  0  0  0  0  0  0  0
    1.0838    4.7484    0.0000 C   0  0  0  0  0  0  0  0  0  0  0  0
    2.1015    2.6351    0.0000 C   0  0  0  0  0  0  0  0  0  0  0  0
    3.0367    3.8079    0.0000 O   0  0  0  0  0  0  0  0  0  0  0  0
    3.0367    1.4624    0.0000 C   0  0  0  0  0  0  0  0  0  0  0  0
    3.7867    2.7614    0.0000 C   0  0  0  0  0  0  0  0  0  0  0  0
    4.5199    1.2388    0.0000 O   0  0  0  0  0  0  0  0  0  0  0  0
  1  2  1  0
  2  3  1  0
  3  4  1  0
  4  5  1  0
  5  6  2  0
  5  7  1  0
  7  8  1  0
  7  9  1  0
  9 10  1  0
 10 11  1  0
 11 12  1  0
 12 13  1  0
 13 14  1  0
 13 15  1  0
 15 16  1  0
 13 17  1  0
 17 18  1  0
 17 19  1  0
 19 20  1  0
 19 21  1  0
  9 22  1  0
 22 23  1  0
 22 24  1  0
 24 25  1  0
 25 26  1  0
 26 27  1  0
 27 28  1  0
 28 29  1  0
 28 30  1  0
 30 31  1  0
 31 32  1  0
 32 33  1  0
 32 34  1  0
 31 35  1  0
 35 36  1  0
 24 37  1  0
 37 38  1  0
 37 39  1  0
 37 40  1  0
 40 41  1  0
 41 42  1  0
 41 43  1  0
 43 44  2  0
 44 45  1  0
 43 46  1  0
 46 47  1  0
 46 48  1  0
 48 49  1  0
 48 50  1  0
 50 51  1  0
 50 52  1  0
 50  3  1  0
 21 11  1  0
 35 26  1  0
M  END
>  <ChEMBL_IDs>  (253) 
nan

>  <target_organism>  (253) 
nan

>  <target_molecule_pref_name>  (253) 
nan

>  <# Known Targets>  (253) 
nan

>  <Known Targets>  (253) 
nan

>  <smiles>  (253) 
CCC1OC(=O)C(C)C(OC2CC(C)(OC)C(O)C(C)O2)C(C)C(OC2OC(C)CC(N(C)C)C2O)C(C)(O)CC(C)/C(=N/O)C(C)C(O)C1(C)O

$$$$

     RDKit          2D

 52 54  0  0  0  0  0  0  0  0999 V2000
    5.8573   -1.2990    0.0000 C   0  0  0  0  0  0  0  0  0  0  0  0
    5.1073    0.0000    0.0000 C   0  0  0  0  0  0  0  0  0  0  0  0
    3.6073    0.0000    0.0000 C   0  0  0  0  0  0  0  0  0  0  0  0
    3.2954    1.4672    0.0000 O   0  0  0  0  0  0  0  0  0  0  0  0
    2.4138    2.6807    0.0000 C   0  0  0  0  0  0  0  0  0  0  0  0
    3.4175    3.7955    0.0000 O   0  0  0  0  0  0  0  0  0  0  0  0
    1.1147    3.4307    0.0000 C   0  0  0  0  0  0  0  0  0  0  0  0
    1.8302    4.5756    0.0000 C   0  0  0  0  0  0  0  0  0  0  0  0
   -0.3771    3.5875    0.0000 C   0  0  0  0  0  0  0  0  0  0  0  0
   -0.5339    5.0793    0.0000 O   0  0  0  0  0  0  0  0  0  0  0  0
    0.6797    5.9610    0.0000 C   0  0  0  0  0  0  0  0  0  0  0  0
    0.5229    7.4528    0.0000 C   0  0  0  0  0  0  0  0  0  0  0  0
    1.7364    8.3345    0.0000 C   0  0  0  0  0  0  0  0  0  0  0  0
    2.5752    9.5780    0.0000 C   0  0  0  0  0  0  0  0  0  0  0  0
    0.6574    9.3764    0.0000 O   0  0  0  0  0  0  0  0  0  0  0  0
    1.0203   10.8319    0.0000 C   0  0  0  0  0  0  0  0  0  0  0  0
    3.1067    7.7244    0.0000 C   0  0  0  0  0  0  0  0  0  0  0  0
    4.3202    8.6060    0.0000 O   0  0  0  0  0  0  0  0  0  0  0  0
    3.2635    6.2326    0.0000 C   0  0  0  0  0  0  0  0  0  0  0  0
    4.6338    5.6225    0.0000 C   0  0  0  0  0  0  0  0  0  0  0  0
    2.0500    5.3509    0.0000 O   0  0  0  0  0  0  0  0  0  0  0  0
   -1.8037    3.1240    0.0000 C   0  0  0  0  0  0  0  0  0  0  0  0
   -2.5537    4.4231    0.0000 C   0  0  0  0  0  0  0  0  0  0  0  0
   -2.9184    2.1203    0.0000 C   0  0  0  0  0  0  0  0  0  0  0  0
   -4.1319    3.0020    0.0000 O   0  0  0  0  0  0  0  0  0  0  0  0
   -5.5022    2.3919    0.0000 C   0  0  0  0  0  0  0  0  0  0  0  0
   -6.7157    3.2736    0.0000 O   0  0  0  0  0  0  0  0  0  0  0  0
   -8.0861    2.6635    0.0000 C   0  0  0  0  0  0  0  0  0  0  0  0
   -9.2996    3.5451    0.0000 C   0  0  0  0  0  0  0  0  0  0  0  0
   -8.2428    1.1717    0.0000 C   0  0  0  0  0  0  0  0  0  0  0  0
   -7.0293    0.2900    0.0000 C   0  0  0  0  0  0  0  0  0  0  0  0
   -7.1861   -1.2018    0.0000 N   0  0  0  0  0  0  0  0  0  0  0  0
   -8.5564   -1.8119    0.0000 C   0  0  0  0  0  0  0  0  0  0  0  0
   -5.9726   -2.0835    0.0000 C   0  0  0  0  0  0  0  0  0  0  0  0
   -5.6590    0.9001    0.0000 C   0  0  0  0  0  0  0  0  0  0  0  0
   -5.0760    0.3564    0.0000 O   0  0  0  0  0  0  0  0  0  0  0  0
   -3.5285    0.7500    0.0000 C   0  0  0  0  0  0  0  0  0  0  0  0
   -4.2257    0.3635    0.0000 C   0  0  0  0  0  0  0  0  0  0  0  0
   -4.5705    1.8290    0.0000 O   0  0  0  0  0  0  0  0  0  0  0  0
   -3.5285   -0.7500    0.0000 C   0  0  0  0  0  0  0  0  0  0  0  0
   -2.9184   -2.1203    0.0000 C   0  0  0  0  0  0  0  0  0  0  0  0
   -4.1319   -3.0020    0.0000 C   0  0  0  0  0  0  0  0  0  0  0  0
   -1.8037   -3.1240    0.0000 N   0  0  0  0  0  0  0  0  0  0  0  0
   -0.3771   -3.5875    0.0000 C   0  0  0  0  0  0  0  0  0  0  0  0
   -0.5339   -5.0793    0.0000 O   0  0  0  0  0  0  0  0  0  0  0  0
    1.1147   -3.4307    0.0000 C   0  0  0  0  0  0  0  0  0  0  0  0
    1.5782   -4.8573    0.0000 C   0  0  0  0  0  0  0  0  0  0  0  0
    2.4138   -2.6807    0.0000 C   0  0  0  0  0  0  0  0  0  0  0  0
    3.4175   -3.7955    0.0000 O   0  0  0  0  0  0  0  0  0  0  0  0
    3.2954   -1.4672    0.0000 C   0  0  0  0  0  0  0  0  0  0  0  0
    4.7726   -1.2067    0.0000 C   0  0  0  0  0  0  0  0  0  0  0  0
    4.0903   -2.7393    0.0000 O   0  0  0  0  0  0  0  0  0  0  0  0
  1  2  1  0
  3  2  1  6
  3  4  1  0
  4  5  1  0
  5  6  2  0
  5  7  1  0
  7  8  1  1
  7  9  1  0
  9 10  1  6
 11 10  1  1
 11 12  1  0
 12 13  1  0
 13 14  1  6
 13 15  1  0
 15 16  1  0
 13 17  1  0
 17 18  1  1
 17 19  1  0
 19 20  1  6
 19 21  1  0
  9 22  1  0
 22 23  1  1
 22 24  1  0
 24 25  1  6
 26 25  1  1
 26 27  1  0
 27 28  1  0
 28 29  1  1
 28 30  1  0
 30 31  1  0
 31 32  1  1
 32 33  1  0
 32 34  1  0
 31 35  1  0
 35 36  1  6
 24 37  1  0
 37 38  1  6
 37 39  1  0
 37 40  1  0
 40 41  1  0
 41 42  1  6
 41 43  1  0
 43 44  1  0
 44 45  2  0
 44 46  1  0
 46 47  1  1
 46 48  1  0
 48 49  1  6
 48 50  1  0
 50 51  1  6
 50 52  1  0
 50  3  1  0
 21 11  1  0
 35 26  1  0
M  END
>  <ChEMBL_IDs>  (254) 
CHEMBL284466

>  <target_organism>  (254) 
None

>  <target_molecule_pref_name>  (254) 
nan

>  <# Known Targets>  (254) 
nan

>  <Known Targets>  (254) 
nan

>  <smiles>  (254) 
CC[C@H]1OC(=O)[C@H](C)[C@@H](O[C@H]2C[C@@](C)(OC)[C@@H](O)[C@H](C)O2)[C@H](C)[C@@H](O[C@@H]2O[C@H](C)C[C@H](N(C)C)[C@H]2O)[C@](C)(O)C[C@@H](C)NC(=O)[C@H](C)[C@@H](O)[C@]1(C)O

$$$$

     RDKit          2D

 50 52  0  0  0  0  0  0  0  0999 V2000
    5.6205   -1.2990    0.0000 C   0  0  0  0  0  0  0  0  0  0  0  0
    4.8705    0.0000    0.0000 C   0  0  0  0  0  0  0  0  0  0  0  0
    3.3705    0.0000    0.0000 C   0  0  0  0  0  0  0  0  0  0  0  0
    3.0367   -1.4624    0.0000 O   0  0  0  0  0  0  0  0  0  0  0  0
    2.1015   -2.6351    0.0000 C   0  0  0  0  0  0  0  0  0  0  0  0
    3.0367   -3.8079    0.0000 O   0  0  0  0  0  0  0  0  0  0  0  0
    0.7500   -3.2860    0.0000 C   0  0  0  0  0  0  0  0  0  0  0  0
    1.3600   -4.4903    0.0000 C   0  0  0  0  0  0  0  0  0  0  0  0
   -0.7500   -3.2860    0.0000 C   0  0  0  0  0  0  0  0  0  0  0  0
   -1.0838   -4.7484    0.0000 O   0  0  0  0  0  0  0  0  0  0  0  0
    0.0158   -5.7686    0.0000 C   0  0  0  0  0  0  0  0  0  0  0  0
   -0.3180   -7.2310    0.0000 C   0  0  0  0  0  0  0  0  0  0  0  0
    0.7816   -8.2513    0.0000 C   0  0  0  0  0  0  0  0  0  0  0  0
    1.4659   -9.5861    0.0000 C   0  0  0  0  0  0  0  0  0  0  0  0
   -0.4141   -9.1570    0.0000 O   0  0  0  0  0  0  0  0  0  0  0  0
   -0.2276  -10.6453    0.0000 C   0  0  0  0  0  0  0  0  0  0  0  0
    2.2150   -7.8091    0.0000 C   0  0  0  0  0  0  0  0  0  0  0  0
    3.3145   -8.8294    0.0000 O   0  0  0  0  0  0  0  0  0  0  0  0
    2.5487   -6.3467    0.0000 C   0  0  0  0  0  0  0  0  0  0  0  0
    3.9821   -5.9046    0.0000 C   0  0  0  0  0  0  0  0  0  0  0  0
    1.4492   -5.3265    0.0000 O   0  0  0  0  0  0  0  0  0  0  0  0
   -2.1015   -2.6351    0.0000 C   0  0  0  0  0  0  0  0  0  0  0  0
   -3.0367   -3.8079    0.0000 C   0  0  0  0  0  0  0  0  0  0  0  0
   -3.0367   -1.4624    0.0000 C   0  0  0  0  0  0  0  0  0  0  0  0
   -4.3881   -2.1132    0.0000 O   0  0  0  0  0  0  0  0  0  0  0  0
   -5.6275   -1.2682    0.0000 C   0  0  0  0  0  0  0  0  0  0  0  0
   -5.5154    0.2276    0.0000 O   0  0  0  0  0  0  0  0  0  0  0  0
   -6.7548    1.0725    0.0000 C   0  0  0  0  0  0  0  0  0  0  0  0
   -6.6427    2.5684    0.0000 C   0  0  0  0  0  0  0  0  0  0  0  0
   -8.1062    0.4217    0.0000 C   0  0  0  0  0  0  0  0  0  0  0  0
   -8.2183   -1.0741    0.0000 C   0  0  0  0  0  0  0  0  0  0  0  0
   -9.5698   -1.7249    0.0000 N   0  0  0  0  0  0  0  0  0  0  0  0
  -10.8091   -0.8799    0.0000 C   0  0  0  0  0  0  0  0  0  0  0  0
   -9.6819   -3.2207    0.0000 C   0  0  0  0  0  0  0  0  0  0  0  0
   -6.9790   -1.9191    0.0000 C   0  0  0  0  0  0  0  0  0  0  0  0
   -7.0910   -3.4149    0.0000 O   0  0  0  0  0  0  0  0  0  0  0  0
   -3.3705    0.0000    0.0000 C   0  0  0  0  0  0  0  0  0  0  0  0
   -4.6098   -0.8450    0.0000 C   0  0  0  0  0  0  0  0  0  0  0  0
   -4.6098    0.8450    0.0000 O   0  0  0  0  0  0  0  0  0  0  0  0
   -3.0367    1.4624    0.0000 C   0  0  0  0  0  0  0  0  0  0  0  0
   -2.1015    2.6351    0.0000 C   0  0  0  0  0  0  0  0  0  0  0  0
   -3.0367    3.8079    0.0000 C   0  0  0  0  0  0  0  0  0  0  0  0
   -0.7500    3.2860    0.0000 C   0  0  0  0  0  0  0  0  0  0  0  0
   -1.0838    4.7484    0.0000 N   0  0  0  0  0  0  0  0  0  0  0  0
    0.7500    3.2860    0.0000 C   0  0  0  0  0  0  0  0  0  0  0  0
    1.0838    4.7484    0.0000 C   0  0  0  0  0  0  0  0  0  0  0  0
    2.1015    2.6351    0.0000 C   0  0  0  0  0  0  0  0  0  0  0  0
    3.0367    3.8079    0.0000 O   0  0  0  0  0  0  0  0  0  0  0  0
    3.0367    1.4624    0.0000 C   0  0  0  0  0  0  0  0  0  0  0  0
    4.3881    2.1132    0.0000 C   0  0  0  0  0  0  0  0  0  0  0  0
  1  2  1  0
  3  2  1  1
  3  4  1  0
  4  5  1  0
  5  6  2  0
  5  7  1  0
  7  8  1  6
  7  9  1  0
  9 10  1  1
 10 11  1  0
 11 12  1  0
 12 13  1  0
 13 14  1  0
 13 15  1  0
 15 16  1  0
 13 17  1  0
 17 18  1  0
 17 19  1  0
 19 20  1  0
 19 21  1  0
  9 22  1  0
 22 23  1  6
 22 24  1  0
 24 25  1  1
 25 26  1  0
 26 27  1  0
 27 28  1  0
 28 29  1  0
 28 30  1  0
 30 31  1  0
 31 32  1  0
 32 33  1  0
 32 34  1  0
 31 35  1  0
 35 36  1  0
 24 37  1  0
 37 38  1  1
 37 39  1  0
 37 40  1  0
 40 41  1  0
 41 42  1  1
 41 43  1  0
 43 44  1  6
 43 45  1  0
 45 46  1  6
 45 47  1  0
 47 48  1  1
 47 49  1  0
 49 50  1  1
 49  3  1  0
 21 11  1  0
 35 26  1  0
M  END
>  <ChEMBL_IDs>  (255) 
CHEMBL431834

>  <target_organism>  (255) 
Rattus norvegicus

>  <target_molecule_pref_name>  (255) 
nan

>  <# Known Targets>  (255) 
nan

>  <Known Targets>  (255) 
nan

>  <smiles>  (255) 
CC[C@H]1OC(=O)[C@H](C)[C@@H](OC2CC(C)(OC)C(O)C(C)O2)[C@H](C)[C@@H](OC2OC(C)CC(N(C)C)C2O)[C@](C)(O)C[C@@H](C)[C@H](N)[C@H](C)[C@@H](O)[C@H]1C

$$$$

     RDKit          2D

 50 52  0  0  0  0  0  0  0  0999 V2000
    5.6205   -1.2990    0.0000 C   0  0  0  0  0  0  0  0  0  0  0  0
    4.8705    0.0000    0.0000 C   0  0  0  0  0  0  0  0  0  0  0  0
    3.3705    0.0000    0.0000 C   0  0  0  0  0  0  0  0  0  0  0  0
    3.0367   -1.4624    0.0000 O   0  0  0  0  0  0  0  0  0  0  0  0
    2.1015   -2.6351    0.0000 C   0  0  0  0  0  0  0  0  0  0  0  0
    3.0367   -3.8079    0.0000 O   0  0  0  0  0  0  0  0  0  0  0  0
    0.7500   -3.2860    0.0000 C   0  0  0  0  0  0  0  0  0  0  0  0
    1.3600   -4.4903    0.0000 C   0  0  0  0  0  0  0  0  0  0  0  0
   -0.7500   -3.2860    0.0000 C   0  0  0  0  0  0  0  0  0  0  0  0
   -1.0838   -4.7484    0.0000 O   0  0  0  0  0  0  0  0  0  0  0  0
    0.0158   -5.7686    0.0000 C   0  0  0  0  0  0  0  0  0  0  0  0
   -0.3180   -7.2310    0.0000 C   0  0  0  0  0  0  0  0  0  0  0  0
    0.7816   -8.2513    0.0000 C   0  0  0  0  0  0  0  0  0  0  0  0
    1.4659   -9.5861    0.0000 C   0  0  0  0  0  0  0  0  0  0  0  0
   -0.4141   -9.1570    0.0000 O   0  0  0  0  0  0  0  0  0  0  0  0
   -0.2276  -10.6453    0.0000 C   0  0  0  0  0  0  0  0  0  0  0  0
    2.2150   -7.8091    0.0000 C   0  0  0  0  0  0  0  0  0  0  0  0
    3.3145   -8.8294    0.0000 O   0  0  0  0  0  0  0  0  0  0  0  0
    2.5487   -6.3467    0.0000 C   0  0  0  0  0  0  0  0  0  0  0  0
    3.9821   -5.9046    0.0000 C   0  0  0  0  0  0  0  0  0  0  0  0
    1.4492   -5.3265    0.0000 O   0  0  0  0  0  0  0  0  0  0  0  0
   -2.1015   -2.6351    0.0000 C   0  0  0  0  0  0  0  0  0  0  0  0
   -3.0367   -3.8079    0.0000 C   0  0  0  0  0  0  0  0  0  0  0  0
   -3.0367   -1.4624    0.0000 C   0  0  0  0  0  0  0  0  0  0  0  0
   -4.3881   -2.1132    0.0000 O   0  0  0  0  0  0  0  0  0  0  0  0
   -5.6275   -1.2682    0.0000 C   0  0  0  0  0  0  0  0  0  0  0  0
   -5.5154    0.2276    0.0000 O   0  0  0  0  0  0  0  0  0  0  0  0
   -6.7548    1.0725    0.0000 C   0  0  0  0  0  0  0  0  0  0  0  0
   -6.6427    2.5684    0.0000 C   0  0  0  0  0  0  0  0  0  0  0  0
   -8.1062    0.4217    0.0000 C   0  0  0  0  0  0  0  0  0  0  0  0
   -8.2183   -1.0741    0.0000 C   0  0  0  0  0  0  0  0  0  0  0  0
   -9.5698   -1.7249    0.0000 N   0  0  0  0  0  0  0  0  0  0  0  0
  -10.8091   -0.8799    0.0000 C   0  0  0  0  0  0  0  0  0  0  0  0
   -9.6819   -3.2207    0.0000 C   0  0  0  0  0  0  0  0  0  0  0  0
   -6.9790   -1.9191    0.0000 C   0  0  0  0  0  0  0  0  0  0  0  0
   -7.0910   -3.4149    0.0000 O   0  0  0  0  0  0  0  0  0  0  0  0
   -3.3705    0.0000    0.0000 C   0  0  0  0  0  0  0  0  0  0  0  0
   -4.6098   -0.8450    0.0000 C   0  0  0  0  0  0  0  0  0  0  0  0
   -4.6098    0.8450    0.0000 O   0  0  0  0  0  0  0  0  0  0  0  0
   -3.0367    1.4624    0.0000 C   0  0  0  0  0  0  0  0  0  0  0  0
   -2.1015    2.6351    0.0000 C   0  0  0  0  0  0  0  0  0  0  0  0
   -3.0367    3.8079    0.0000 C   0  0  0  0  0  0  0  0  0  0  0  0
   -0.7500    3.2860    0.0000 C   0  0  0  0  0  0  0  0  0  0  0  0
   -1.0838    4.7484    0.0000 N   0  0  0  0  0  0  0  0  0  0  0  0
    0.7500    3.2860    0.0000 C   0  0  0  0  0  0  0  0  0  0  0  0
    1.0838    4.7484    0.0000 C   0  0  0  0  0  0  0  0  0  0  0  0
    2.1015    2.6351    0.0000 C   0  0  0  0  0  0  0  0  0  0  0  0
    3.0367    3.8079    0.0000 O   0  0  0  0  0  0  0  0  0  0  0  0
    3.0367    1.4624    0.0000 C   0  0  0  0  0  0  0  0  0  0  0  0
    4.3881    2.1132    0.0000 C   0  0  0  0  0  0  0  0  0  0  0  0
  1  2  1  0
  3  2  1  1
  3  4  1  0
  4  5  1  0
  5  6  2  0
  5  7  1  0
  7  8  1  6
  7  9  1  0
  9 10  1  1
 10 11  1  0
 11 12  1  0
 12 13  1  0
 13 14  1  0
 13 15  1  0
 15 16  1  0
 13 17  1  0
 17 18  1  0
 17 19  1  0
 19 20  1  0
 19 21  1  0
  9 22  1  0
 22 23  1  6
 22 24  1  0
 24 25  1  1
 25 26  1  0
 26 27  1  0
 27 28  1  0
 28 29  1  0
 28 30  1  0
 30 31  1  0
 31 32  1  0
 32 33  1  0
 32 34  1  0
 31 35  1  0
 35 36  1  0
 24 37  1  0
 37 38  1  1
 37 39  1  0
 37 40  1  0
 40 41  1  0
 41 42  1  1
 41 43  1  0
 43 44  1  1
 43 45  1  0
 45 46  1  6
 45 47  1  0
 47 48  1  1
 47 49  1  0
 49 50  1  1
 49  3  1  0
 21 11  1  0
 35 26  1  0
M  END
>  <ChEMBL_IDs>  (256) 
CHEMBL321872

>  <target_organism>  (256) 
None

>  <target_molecule_pref_name>  (256) 
nan

>  <# Known Targets>  (256) 
nan

>  <Known Targets>  (256) 
nan

>  <smiles>  (256) 
CC[C@H]1OC(=O)[C@H](C)[C@@H](OC2CC(C)(OC)C(O)C(C)O2)[C@H](C)[C@@H](OC2OC(C)CC(N(C)C)C2O)[C@](C)(O)C[C@@H](C)[C@@H](N)[C@H](C)[C@@H](O)[C@H]1C

$$$$

     RDKit          2D

 51 53  0  0  0  0  0  0  0  0999 V2000
    5.6205   -1.2990    0.0000 C   0  0  0  0  0  0  0  0  0  0  0  0
    4.8705    0.0000    0.0000 C   0  0  0  0  0  0  0  0  0  0  0  0
    3.3705    0.0000    0.0000 C   0  0  0  0  0  0  0  0  0  0  0  0
    3.0367   -1.4624    0.0000 O   0  0  0  0  0  0  0  0  0  0  0  0
    2.1015   -2.6351    0.0000 C   0  0  0  0  0  0  0  0  0  0  0  0
    3.0367   -3.8079    0.0000 O   0  0  0  0  0  0  0  0  0  0  0  0
    0.7500   -3.2860    0.0000 C   0  0  0  0  0  0  0  0  0  0  0  0
    1.3600   -4.4903    0.0000 C   0  0  0  0  0  0  0  0  0  0  0  0
   -0.7500   -3.2860    0.0000 C   0  0  0  0  0  0  0  0  0  0  0  0
   -1.0838   -4.7484    0.0000 O   0  0  0  0  0  0  0  0  0  0  0  0
    0.0158   -5.7686    0.0000 C   0  0  0  0  0  0  0  0  0  0  0  0
   -0.3180   -7.2310    0.0000 C   0  0  0  0  0  0  0  0  0  0  0  0
    0.7816   -8.2513    0.0000 C   0  0  0  0  0  0  0  0  0  0  0  0
    1.4659   -9.5861    0.0000 C   0  0  0  0  0  0  0  0  0  0  0  0
   -0.4141   -9.1570    0.0000 O   0  0  0  0  0  0  0  0  0  0  0  0
   -0.2276  -10.6453    0.0000 C   0  0  0  0  0  0  0  0  0  0  0  0
    2.2150   -7.8091    0.0000 C   0  0  0  0  0  0  0  0  0  0  0  0
    3.3145   -8.8294    0.0000 O   0  0  0  0  0  0  0  0  0  0  0  0
    2.5487   -6.3467    0.0000 C   0  0  0  0  0  0  0  0  0  0  0  0
    3.9821   -5.9046    0.0000 C   0  0  0  0  0  0  0  0  0  0  0  0
    1.4492   -5.3265    0.0000 O   0  0  0  0  0  0  0  0  0  0  0  0
   -2.1015   -2.6351    0.0000 C   0  0  0  0  0  0  0  0  0  0  0  0
   -3.0367   -3.8079    0.0000 C   0  0  0  0  0  0  0  0  0  0  0  0
   -3.0367   -1.4624    0.0000 C   0  0  0  0  0  0  0  0  0  0  0  0
   -4.3881   -2.1132    0.0000 O   0  0  0  0  0  0  0  0  0  0  0  0
   -5.6275   -1.2682    0.0000 C   0  0  0  0  0  0  0  0  0  0  0  0
   -5.5154    0.2276    0.0000 O   0  0  0  0  0  0  0  0  0  0  0  0
   -6.7548    1.0725    0.0000 C   0  0  0  0  0  0  0  0  0  0  0  0
   -6.6427    2.5684    0.0000 C   0  0  0  0  0  0  0  0  0  0  0  0
   -8.1062    0.4217    0.0000 C   0  0  0  0  0  0  0  0  0  0  0  0
   -8.2183   -1.0741    0.0000 C   0  0  0  0  0  0  0  0  0  0  0  0
   -9.5698   -1.7249    0.0000 N   0  0  0  0  0  0  0  0  0  0  0  0
  -10.8091   -0.8799    0.0000 C   0  0  0  0  0  0  0  0  0  0  0  0
   -9.6819   -3.2207    0.0000 C   0  0  0  0  0  0  0  0  0  0  0  0
   -6.9790   -1.9191    0.0000 C   0  0  0  0  0  0  0  0  0  0  0  0
   -7.0910   -3.4149    0.0000 O   0  0  0  0  0  0  0  0  0  0  0  0
   -3.3705    0.0000    0.0000 C   0  0  0  0  0  0  0  0  0  0  0  0
   -4.6098   -0.8450    0.0000 C   0  0  0  0  0  0  0  0  0  0  0  0
   -4.6098    0.8450    0.0000 O   0  0  0  0  0  0  0  0  0  0  0  0
   -3.0367    1.4624    0.0000 C   0  0  0  0  0  0  0  0  0  0  0  0
   -2.1015    2.6351    0.0000 C   0  0  0  0  0  0  0  0  0  0  0  0
   -3.0367    3.8079    0.0000 C   0  0  0  0  0  0  0  0  0  0  0  0
   -0.7500    3.2860    0.0000 C   0  0  0  0  0  0  0  0  0  0  0  0
   -1.0838    4.7484    0.0000 N   0  0  0  0  0  0  0  0  0  0  0  0
    0.7500    3.2860    0.0000 C   0  0  0  0  0  0  0  0  0  0  0  0
    1.0838    4.7484    0.0000 C   0  0  0  0  0  0  0  0  0  0  0  0
    2.1015    2.6351    0.0000 C   0  0  0  0  0  0  0  0  0  0  0  0
    3.0367    3.8079    0.0000 O   0  0  0  0  0  0  0  0  0  0  0  0
    3.0367    1.4624    0.0000 C   0  0  0  0  0  0  0  0  0  0  0  0
    3.7867    2.7614    0.0000 C   0  0  0  0  0  0  0  0  0  0  0  0
    4.5199    1.2388    0.0000 O   0  0  0  0  0  0  0  0  0  0  0  0
  1  2  1  0
  3  2  1  1
  3  4  1  0
  4  5  1  0
  5  6  2  0
  5  7  1  0
  7  8  1  6
  7  9  1  0
  9 10  1  1
 11 10  1  6
 11 12  1  0
 12 13  1  0
 13 14  1  1
 13 15  1  0
 15 16  1  0
 13 17  1  0
 17 18  1  6
 17 19  1  0
 19 20  1  1
 19 21  1  0
  9 22  1  0
 22 23  1  6
 22 24  1  0
 24 25  1  1
 26 25  1  1
 26 27  1  0
 27 28  1  0
 28 29  1  1
 28 30  1  0
 30 31  1  0
 31 32  1  1
 32 33  1  0
 32 34  1  0
 31 35  1  0
 35 36  1  6
 24 37  1  0
 37 38  1  1
 37 39  1  0
 37 40  1  0
 40 41  1  0
 41 42  1  1
 41 43  1  0
 43 44  1  6
 43 45  1  0
 45 46  1  6
 45 47  1  0
 47 48  1  1
 47 49  1  0
 49 50  1  1
 49 51  1  0
 49  3  1  0
 21 11  1  0
 35 26  1  0
M  END
>  <ChEMBL_IDs>  (257) 
CHEMBL290242

>  <target_organism>  (257) 
None

>  <target_molecule_pref_name>  (257) 
nan

>  <# Known Targets>  (257) 
nan

>  <Known Targets>  (257) 
nan

>  <smiles>  (257) 
CC[C@H]1OC(=O)[C@H](C)[C@@H](O[C@H]2C[C@@](C)(OC)[C@@H](O)[C@H](C)O2)[C@H](C)[C@@H](O[C@@H]2O[C@H](C)C[C@H](N(C)C)[C@H]2O)[C@](C)(O)C[C@@H](C)[C@H](N)[C@H](C)[C@@H](O)[C@]1(C)O

$$$$

     RDKit          2D

 51 53  0  0  0  0  0  0  0  0999 V2000
    5.6205   -1.2990    0.0000 C   0  0  0  0  0  0  0  0  0  0  0  0
    4.8705    0.0000    0.0000 C   0  0  0  0  0  0  0  0  0  0  0  0
    3.3705    0.0000    0.0000 C   0  0  0  0  0  0  0  0  0  0  0  0
    3.0367   -1.4624    0.0000 O   0  0  0  0  0  0  0  0  0  0  0  0
    2.1015   -2.6351    0.0000 C   0  0  0  0  0  0  0  0  0  0  0  0
    3.0367   -3.8079    0.0000 O   0  0  0  0  0  0  0  0  0  0  0  0
    0.7500   -3.2860    0.0000 C   0  0  0  0  0  0  0  0  0  0  0  0
    1.3600   -4.4903    0.0000 C   0  0  0  0  0  0  0  0  0  0  0  0
   -0.7500   -3.2860    0.0000 C   0  0  0  0  0  0  0  0  0  0  0  0
   -1.0838   -4.7484    0.0000 O   0  0  0  0  0  0  0  0  0  0  0  0
    0.0158   -5.7686    0.0000 C   0  0  0  0  0  0  0  0  0  0  0  0
   -0.3180   -7.2310    0.0000 C   0  0  0  0  0  0  0  0  0  0  0  0
    0.7816   -8.2513    0.0000 C   0  0  0  0  0  0  0  0  0  0  0  0
    1.4659   -9.5861    0.0000 C   0  0  0  0  0  0  0  0  0  0  0  0
   -0.4141   -9.1570    0.0000 O   0  0  0  0  0  0  0  0  0  0  0  0
   -0.2276  -10.6453    0.0000 C   0  0  0  0  0  0  0  0  0  0  0  0
    2.2150   -7.8091    0.0000 C   0  0  0  0  0  0  0  0  0  0  0  0
    3.3145   -8.8294    0.0000 O   0  0  0  0  0  0  0  0  0  0  0  0
    2.5487   -6.3467    0.0000 C   0  0  0  0  0  0  0  0  0  0  0  0
    3.9821   -5.9046    0.0000 C   0  0  0  0  0  0  0  0  0  0  0  0
    1.4492   -5.3265    0.0000 O   0  0  0  0  0  0  0  0  0  0  0  0
   -2.1015   -2.6351    0.0000 C   0  0  0  0  0  0  0  0  0  0  0  0
   -3.0367   -3.8079    0.0000 C   0  0  0  0  0  0  0  0  0  0  0  0
   -3.0367   -1.4624    0.0000 C   0  0  0  0  0  0  0  0  0  0  0  0
   -4.3881   -2.1132    0.0000 O   0  0  0  0  0  0  0  0  0  0  0  0
   -5.6275   -1.2682    0.0000 C   0  0  0  0  0  0  0  0  0  0  0  0
   -5.5154    0.2276    0.0000 O   0  0  0  0  0  0  0  0  0  0  0  0
   -6.7548    1.0725    0.0000 C   0  0  0  0  0  0  0  0  0  0  0  0
   -6.6427    2.5684    0.0000 C   0  0  0  0  0  0  0  0  0  0  0  0
   -8.1062    0.4217    0.0000 C   0  0  0  0  0  0  0  0  0  0  0  0
   -8.2183   -1.0741    0.0000 C   0  0  0  0  0  0  0  0  0  0  0  0
   -9.5698   -1.7249    0.0000 N   0  0  0  0  0  0  0  0  0  0  0  0
  -10.8091   -0.8799    0.0000 C   0  0  0  0  0  0  0  0  0  0  0  0
   -9.6819   -3.2207    0.0000 C   0  0  0  0  0  0  0  0  0  0  0  0
   -6.9790   -1.9191    0.0000 C   0  0  0  0  0  0  0  0  0  0  0  0
   -7.0910   -3.4149    0.0000 O   0  0  0  0  0  0  0  0  0  0  0  0
   -3.3705    0.0000    0.0000 C   0  0  0  0  0  0  0  0  0  0  0  0
   -4.6098   -0.8450    0.0000 C   0  0  0  0  0  0  0  0  0  0  0  0
   -4.6098    0.8450    0.0000 O   0  0  0  0  0  0  0  0  0  0  0  0
   -3.0367    1.4624    0.0000 C   0  0  0  0  0  0  0  0  0  0  0  0
   -2.1015    2.6351    0.0000 C   0  0  0  0  0  0  0  0  0  0  0  0
   -3.0367    3.8079    0.0000 C   0  0  0  0  0  0  0  0  0  0  0  0
   -0.7500    3.2860    0.0000 C   0  0  0  0  0  0  0  0  0  0  0  0
   -1.0838    4.7484    0.0000 N   0  0  0  0  0  0  0  0  0  0  0  0
    0.7500    3.2860    0.0000 C   0  0  0  0  0  0  0  0  0  0  0  0
    1.0838    4.7484    0.0000 C   0  0  0  0  0  0  0  0  0  0  0  0
    2.1015    2.6351    0.0000 C   0  0  0  0  0  0  0  0  0  0  0  0
    3.0367    3.8079    0.0000 O   0  0  0  0  0  0  0  0  0  0  0  0
    3.0367    1.4624    0.0000 C   0  0  0  0  0  0  0  0  0  0  0  0
    3.7867    2.7614    0.0000 C   0  0  0  0  0  0  0  0  0  0  0  0
    4.5199    1.2388    0.0000 O   0  0  0  0  0  0  0  0  0  0  0  0
  1  2  1  0
  3  2  1  1
  3  4  1  0
  4  5  1  0
  5  6  2  0
  5  7  1  0
  7  8  1  6
  7  9  1  0
  9 10  1  6
 11 10  1  6
 11 12  1  0
 12 13  1  0
 13 14  1  1
 13 15  1  0
 15 16  1  0
 13 17  1  0
 17 18  1  6
 17 19  1  0
 19 20  1  1
 19 21  1  0
  9 22  1  0
 22 23  1  6
 22 24  1  0
 24 25  1  1
 26 25  1  1
 26 27  1  0
 27 28  1  0
 28 29  1  1
 28 30  1  0
 30 31  1  0
 31 32  1  1
 32 33  1  0
 32 34  1  0
 31 35  1  0
 35 36  1  6
 24 37  1  0
 37 38  1  1
 37 39  1  0
 37 40  1  0
 40 41  1  0
 41 42  1  1
 41 43  1  0
 43 44  1  6
 43 45  1  0
 45 46  1  6
 45 47  1  0
 47 48  1  1
 47 49  1  0
 49 50  1  1
 49 51  1  0
 49  3  1  0
 21 11  1  0
 35 26  1  0
M  END
>  <ChEMBL_IDs>  (258) 
CHEMBL1201397

>  <target_organism>  (258) 
nan

>  <target_molecule_pref_name>  (258) 
nan

>  <# Known Targets>  (258) 
nan

>  <Known Targets>  (258) 
nan

>  <smiles>  (258) 
CC[C@H]1OC(=O)[C@H](C)[C@H](O[C@H]2C[C@@](C)(OC)[C@@H](O)[C@H](C)O2)[C@H](C)[C@@H](O[C@@H]2O[C@H](C)C[C@H](N(C)C)[C@H]2O)[C@](C)(O)C[C@@H](C)[C@H](N)[C@H](C)[C@@H](O)[C@]1(C)O

$$$$

     RDKit          2D

 51 53  0  0  0  0  0  0  0  0999 V2000
    5.6205   -1.2990    0.0000 C   0  0  0  0  0  0  0  0  0  0  0  0
    4.8705    0.0000    0.0000 C   0  0  0  0  0  0  0  0  0  0  0  0
    3.3705    0.0000    0.0000 C   0  0  0  0  0  0  0  0  0  0  0  0
    3.0367   -1.4624    0.0000 O   0  0  0  0  0  0  0  0  0  0  0  0
    2.1015   -2.6351    0.0000 C   0  0  0  0  0  0  0  0  0  0  0  0
    3.0367   -3.8079    0.0000 O   0  0  0  0  0  0  0  0  0  0  0  0
    0.7500   -3.2860    0.0000 C   0  0  0  0  0  0  0  0  0  0  0  0
    1.3600   -4.4903    0.0000 C   0  0  0  0  0  0  0  0  0  0  0  0
   -0.7500   -3.2860    0.0000 C   0  0  0  0  0  0  0  0  0  0  0  0
   -1.0838   -4.7484    0.0000 O   0  0  0  0  0  0  0  0  0  0  0  0
    0.0158   -5.7686    0.0000 C   0  0  0  0  0  0  0  0  0  0  0  0
   -0.3180   -7.2310    0.0000 C   0  0  0  0  0  0  0  0  0  0  0  0
    0.7816   -8.2513    0.0000 C   0  0  0  0  0  0  0  0  0  0  0  0
    1.4659   -9.5861    0.0000 C   0  0  0  0  0  0  0  0  0  0  0  0
   -0.4141   -9.1570    0.0000 O   0  0  0  0  0  0  0  0  0  0  0  0
   -0.2276  -10.6453    0.0000 C   0  0  0  0  0  0  0  0  0  0  0  0
    2.2150   -7.8091    0.0000 C   0  0  0  0  0  0  0  0  0  0  0  0
    3.3145   -8.8294    0.0000 O   0  0  0  0  0  0  0  0  0  0  0  0
    2.5487   -6.3467    0.0000 C   0  0  0  0  0  0  0  0  0  0  0  0
    3.9821   -5.9046    0.0000 C   0  0  0  0  0  0  0  0  0  0  0  0
    1.4492   -5.3265    0.0000 O   0  0  0  0  0  0  0  0  0  0  0  0
   -2.1015   -2.6351    0.0000 C   0  0  0  0  0  0  0  0  0  0  0  0
   -3.0367   -3.8079    0.0000 C   0  0  0  0  0  0  0  0  0  0  0  0
   -3.0367   -1.4624    0.0000 C   0  0  0  0  0  0  0  0  0  0  0  0
   -4.3881   -2.1132    0.0000 O   0  0  0  0  0  0  0  0  0  0  0  0
   -5.6275   -1.2682    0.0000 C   0  0  0  0  0  0  0  0  0  0  0  0
   -5.5154    0.2276    0.0000 O   0  0  0  0  0  0  0  0  0  0  0  0
   -6.7548    1.0725    0.0000 C   0  0  0  0  0  0  0  0  0  0  0  0
   -6.6427    2.5684    0.0000 C   0  0  0  0  0  0  0  0  0  0  0  0
   -8.1062    0.4217    0.0000 C   0  0  0  0  0  0  0  0  0  0  0  0
   -8.2183   -1.0741    0.0000 C   0  0  0  0  0  0  0  0  0  0  0  0
   -9.5698   -1.7249    0.0000 N   0  0  0  0  0  0  0  0  0  0  0  0
  -10.8091   -0.8799    0.0000 C   0  0  0  0  0  0  0  0  0  0  0  0
   -9.6819   -3.2207    0.0000 C   0  0  0  0  0  0  0  0  0  0  0  0
   -6.9790   -1.9191    0.0000 C   0  0  0  0  0  0  0  0  0  0  0  0
   -7.0910   -3.4149    0.0000 O   0  0  0  0  0  0  0  0  0  0  0  0
   -3.3705    0.0000    0.0000 C   0  0  0  0  0  0  0  0  0  0  0  0
   -4.6098   -0.8450    0.0000 C   0  0  0  0  0  0  0  0  0  0  0  0
   -4.6098    0.8450    0.0000 O   0  0  0  0  0  0  0  0  0  0  0  0
   -3.0367    1.4624    0.0000 C   0  0  0  0  0  0  0  0  0  0  0  0
   -2.1015    2.6351    0.0000 C   0  0  0  0  0  0  0  0  0  0  0  0
   -3.0367    3.8079    0.0000 C   0  0  0  0  0  0  0  0  0  0  0  0
   -0.7500    3.2860    0.0000 C   0  0  0  0  0  0  0  0  0  0  0  0
   -1.0838    4.7484    0.0000 N   0  0  0  0  0  0  0  0  0  0  0  0
    0.7500    3.2860    0.0000 C   0  0  0  0  0  0  0  0  0  0  0  0
    1.0838    4.7484    0.0000 C   0  0  0  0  0  0  0  0  0  0  0  0
    2.1015    2.6351    0.0000 C   0  0  0  0  0  0  0  0  0  0  0  0
    3.0367    3.8079    0.0000 O   0  0  0  0  0  0  0  0  0  0  0  0
    3.0367    1.4624    0.0000 C   0  0  0  0  0  0  0  0  0  0  0  0
    3.7867    2.7614    0.0000 C   0  0  0  0  0  0  0  0  0  0  0  0
    4.5199    1.2388    0.0000 O   0  0  0  0  0  0  0  0  0  0  0  0
  1  2  1  0
  3  2  1  1
  3  4  1  0
  4  5  1  0
  5  6  2  0
  5  7  1  0
  7  8  1  6
  7  9  1  0
  9 10  1  1
 11 10  1  6
 11 12  1  0
 12 13  1  0
 13 14  1  1
 13 15  1  0
 15 16  1  0
 13 17  1  0
 17 18  1  6
 17 19  1  0
 19 20  1  1
 19 21  1  0
  9 22  1  0
 22 23  1  6
 22 24  1  0
 24 25  1  1
 26 25  1  1
 26 27  1  0
 27 28  1  0
 28 29  1  1
 28 30  1  0
 30 31  1  0
 31 32  1  1
 32 33  1  0
 32 34  1  0
 31 35  1  0
 35 36  1  6
 24 37  1  0
 37 38  1  6
 37 39  1  0
 37 40  1  0
 40 41  1  0
 41 42  1  1
 41 43  1  0
 43 44  1  1
 43 45  1  0
 45 46  1  6
 45 47  1  0
 47 48  1  1
 47 49  1  0
 49 50  1  1
 49 51  1  0
 49  3  1  0
 21 11  1  0
 35 26  1  0
M  END
>  <ChEMBL_IDs>  (259) 
CHEMBL2051765

>  <target_organism>  (259) 
Plasmodium falciparum

>  <target_molecule_pref_name>  (259) 
nan

>  <# Known Targets>  (259) 
nan

>  <Known Targets>  (259) 
nan

>  <smiles>  (259) 
CC[C@H]1OC(=O)[C@H](C)[C@@H](O[C@H]2C[C@@](C)(OC)[C@@H](O)[C@H](C)O2)[C@H](C)[C@@H](O[C@@H]2O[C@H](C)C[C@H](N(C)C)[C@H]2O)[C@@](C)(O)C[C@@H](C)[C@@H](N)[C@H](C)[C@@H](O)[C@]1(C)O

$$$$

     RDKit          2D

 51 53  0  0  0  0  0  0  0  0999 V2000
    5.6205   -1.2990    0.0000 C   0  0  0  0  0  0  0  0  0  0  0  0
    4.8705    0.0000    0.0000 C   0  0  0  0  0  0  0  0  0  0  0  0
    3.3705    0.0000    0.0000 C   0  0  0  0  0  0  0  0  0  0  0  0
    3.0367   -1.4624    0.0000 O   0  0  0  0  0  0  0  0  0  0  0  0
    2.1015   -2.6351    0.0000 C   0  0  0  0  0  0  0  0  0  0  0  0
    3.0367   -3.8079    0.0000 O   0  0  0  0  0  0  0  0  0  0  0  0
    0.7500   -3.2860    0.0000 C   0  0  0  0  0  0  0  0  0  0  0  0
    1.3600   -4.4903    0.0000 C   0  0  0  0  0  0  0  0  0  0  0  0
   -0.7500   -3.2860    0.0000 C   0  0  0  0  0  0  0  0  0  0  0  0
   -1.0838   -4.7484    0.0000 O   0  0  0  0  0  0  0  0  0  0  0  0
    0.0158   -5.7686    0.0000 C   0  0  0  0  0  0  0  0  0  0  0  0
   -0.3180   -7.2310    0.0000 C   0  0  0  0  0  0  0  0  0  0  0  0
    0.7816   -8.2513    0.0000 C   0  0  0  0  0  0  0  0  0  0  0  0
    1.4659   -9.5861    0.0000 C   0  0  0  0  0  0  0  0  0  0  0  0
   -0.4141   -9.1570    0.0000 O   0  0  0  0  0  0  0  0  0  0  0  0
   -0.2276  -10.6453    0.0000 C   0  0  0  0  0  0  0  0  0  0  0  0
    2.2150   -7.8091    0.0000 C   0  0  0  0  0  0  0  0  0  0  0  0
    3.3145   -8.8294    0.0000 O   0  0  0  0  0  0  0  0  0  0  0  0
    2.5487   -6.3467    0.0000 C   0  0  0  0  0  0  0  0  0  0  0  0
    3.9821   -5.9046    0.0000 C   0  0  0  0  0  0  0  0  0  0  0  0
    1.4492   -5.3265    0.0000 O   0  0  0  0  0  0  0  0  0  0  0  0
   -2.1015   -2.6351    0.0000 C   0  0  0  0  0  0  0  0  0  0  0  0
   -3.0367   -3.8079    0.0000 C   0  0  0  0  0  0  0  0  0  0  0  0
   -3.0367   -1.4624    0.0000 C   0  0  0  0  0  0  0  0  0  0  0  0
   -4.3881   -2.1132    0.0000 O   0  0  0  0  0  0  0  0  0  0  0  0
   -5.6275   -1.2682    0.0000 C   0  0  0  0  0  0  0  0  0  0  0  0
   -5.5154    0.2276    0.0000 O   0  0  0  0  0  0  0  0  0  0  0  0
   -6.7548    1.0725    0.0000 C   0  0  0  0  0  0  0  0  0  0  0  0
   -6.6427    2.5684    0.0000 C   0  0  0  0  0  0  0  0  0  0  0  0
   -8.1062    0.4217    0.0000 C   0  0  0  0  0  0  0  0  0  0  0  0
   -8.2183   -1.0741    0.0000 C   0  0  0  0  0  0  0  0  0  0  0  0
   -9.5698   -1.7249    0.0000 N   0  0  0  0  0  0  0  0  0  0  0  0
  -10.8091   -0.8799    0.0000 C   0  0  0  0  0  0  0  0  0  0  0  0
   -9.6819   -3.2207    0.0000 C   0  0  0  0  0  0  0  0  0  0  0  0
   -6.9790   -1.9191    0.0000 C   0  0  0  0  0  0  0  0  0  0  0  0
   -7.0910   -3.4149    0.0000 O   0  0  0  0  0  0  0  0  0  0  0  0
   -3.3705    0.0000    0.0000 C   0  0  0  0  0  0  0  0  0  0  0  0
   -4.6098   -0.8450    0.0000 C   0  0  0  0  0  0  0  0  0  0  0  0
   -4.6098    0.8450    0.0000 O   0  0  0  0  0  0  0  0  0  0  0  0
   -3.0367    1.4624    0.0000 C   0  0  0  0  0  0  0  0  0  0  0  0
   -2.1015    2.6351    0.0000 C   0  0  0  0  0  0  0  0  0  0  0  0
   -3.0367    3.8079    0.0000 C   0  0  0  0  0  0  0  0  0  0  0  0
   -0.7500    3.2860    0.0000 C   0  0  0  0  0  0  0  0  0  0  0  0
   -1.0838    4.7484    0.0000 N   0  0  0  0  0  0  0  0  0  0  0  0
    0.7500    3.2860    0.0000 C   0  0  0  0  0  0  0  0  0  0  0  0
    1.0838    4.7484    0.0000 C   0  0  0  0  0  0  0  0  0  0  0  0
    2.1015    2.6351    0.0000 C   0  0  0  0  0  0  0  0  0  0  0  0
    3.0367    3.8079    0.0000 O   0  0  0  0  0  0  0  0  0  0  0  0
    3.0367    1.4624    0.0000 C   0  0  0  0  0  0  0  0  0  0  0  0
    3.7867    2.7614    0.0000 C   0  0  0  0  0  0  0  0  0  0  0  0
    4.5199    1.2388    0.0000 O   0  0  0  0  0  0  0  0  0  0  0  0
  1  2  1  0
  3  2  1  1
  3  4  1  0
  4  5  1  0
  5  6  2  0
  5  7  1  0
  7  8  1  6
  7  9  1  0
  9 10  1  1
 11 10  1  6
 11 12  1  0
 12 13  1  0
 13 14  1  1
 13 15  1  0
 15 16  1  0
 13 17  1  0
 17 18  1  6
 17 19  1  0
 19 20  1  1
 19 21  1  0
  9 22  1  0
 22 23  1  6
 22 24  1  0
 24 25  1  1
 26 25  1  1
 26 27  1  0
 27 28  1  0
 28 29  1  1
 28 30  1  0
 30 31  1  0
 31 32  1  1
 32 33  1  0
 32 34  1  0
 31 35  1  0
 35 36  1  6
 24 37  1  0
 37 38  1  1
 37 39  1  0
 37 40  1  0
 40 41  1  0
 41 42  1  1
 41 43  1  0
 43 44  1  0
 43 45  1  0
 45 46  1  6
 45 47  1  0
 47 48  1  1
 47 49  1  0
 49 50  1  1
 49 51  1  0
 49  3  1  0
 21 11  1  0
 35 26  1  0
M  END
>  <ChEMBL_IDs>  (260) 
nan

>  <target_organism>  (260) 
nan

>  <target_molecule_pref_name>  (260) 
nan

>  <# Known Targets>  (260) 
nan

>  <Known Targets>  (260) 
nan

>  <smiles>  (260) 
CC[C@H]1OC(=O)[C@H](C)[C@@H](O[C@H]2C[C@@](C)(OC)[C@@H](O)[C@H](C)O2)[C@H](C)[C@@H](O[C@@H]2O[C@H](C)C[C@H](N(C)C)[C@H]2O)[C@](C)(O)C[C@@H](C)C(N)[C@H](C)[C@@H](O)[C@]1(C)O

$$$$

     RDKit          2D

 51 53  0  0  0  0  0  0  0  0999 V2000
    5.8573   -1.2990    0.0000 C   0  0  0  0  0  0  0  0  0  0  0  0
    5.1073    0.0000    0.0000 C   0  0  0  0  0  0  0  0  0  0  0  0
    3.6073    0.0000    0.0000 C   0  0  0  0  0  0  0  0  0  0  0  0
    3.2954    1.4672    0.0000 O   0  0  0  0  0  0  0  0  0  0  0  0
    2.4138    2.6807    0.0000 C   0  0  0  0  0  0  0  0  0  0  0  0
    3.4175    3.7955    0.0000 O   0  0  0  0  0  0  0  0  0  0  0  0
    1.1147    3.4307    0.0000 C   0  0  0  0  0  0  0  0  0  0  0  0
    1.8302    4.5756    0.0000 C   0  0  0  0  0  0  0  0  0  0  0  0
   -0.3771    3.5875    0.0000 C   0  0  0  0  0  0  0  0  0  0  0  0
   -0.5339    5.0793    0.0000 O   0  0  0  0  0  0  0  0  0  0  0  0
    0.6797    5.9610    0.0000 C   0  0  0  0  0  0  0  0  0  0  0  0
    0.5229    7.4528    0.0000 C   0  0  0  0  0  0  0  0  0  0  0  0
    1.7364    8.3345    0.0000 C   0  0  0  0  0  0  0  0  0  0  0  0
    2.5752    9.5780    0.0000 C   0  0  0  0  0  0  0  0  0  0  0  0
    0.6574    9.3764    0.0000 O   0  0  0  0  0  0  0  0  0  0  0  0
    1.0203   10.8319    0.0000 C   0  0  0  0  0  0  0  0  0  0  0  0
    3.1067    7.7244    0.0000 C   0  0  0  0  0  0  0  0  0  0  0  0
    4.3202    8.6060    0.0000 O   0  0  0  0  0  0  0  0  0  0  0  0
    3.2635    6.2326    0.0000 C   0  0  0  0  0  0  0  0  0  0  0  0
    4.6338    5.6225    0.0000 C   0  0  0  0  0  0  0  0  0  0  0  0
    2.0500    5.3509    0.0000 O   0  0  0  0  0  0  0  0  0  0  0  0
   -1.8037    3.1240    0.0000 C   0  0  0  0  0  0  0  0  0  0  0  0
   -2.5537    4.4231    0.0000 C   0  0  0  0  0  0  0  0  0  0  0  0
   -2.9184    2.1203    0.0000 C   0  0  0  0  0  0  0  0  0  0  0  0
   -4.1319    3.0020    0.0000 O   0  0  0  0  0  0  0  0  0  0  0  0
   -5.5022    2.3919    0.0000 C   0  0  0  0  0  0  0  0  0  0  0  0
   -6.7157    3.2736    0.0000 O   0  0  0  0  0  0  0  0  0  0  0  0
   -8.0861    2.6635    0.0000 C   0  0  0  0  0  0  0  0  0  0  0  0
   -9.2996    3.5451    0.0000 C   0  0  0  0  0  0  0  0  0  0  0  0
   -8.2428    1.1717    0.0000 C   0  0  0  0  0  0  0  0  0  0  0  0
   -7.0293    0.2900    0.0000 C   0  0  0  0  0  0  0  0  0  0  0  0
   -7.1861   -1.2018    0.0000 N   0  0  0  0  0  0  0  0  0  0  0  0
   -8.5564   -1.8119    0.0000 C   0  0  0  0  0  0  0  0  0  0  0  0
   -5.9726   -2.0835    0.0000 C   0  0  0  0  0  0  0  0  0  0  0  0
   -5.6590    0.9001    0.0000 C   0  0  0  0  0  0  0  0  0  0  0  0
   -5.0760    0.3564    0.0000 O   0  0  0  0  0  0  0  0  0  0  0  0
   -3.5285    0.7500    0.0000 C   0  0  0  0  0  0  0  0  0  0  0  0
   -4.2257    0.3635    0.0000 C   0  0  0  0  0  0  0  0  0  0  0  0
   -4.5705    1.8290    0.0000 O   0  0  0  0  0  0  0  0  0  0  0  0
   -3.5285   -0.7500    0.0000 C   0  0  0  0  0  0  0  0  0  0  0  0
   -2.9184   -2.1203    0.0000 C   0  0  0  0  0  0  0  0  0  0  0  0
   -4.1319   -3.0020    0.0000 C   0  0  0  0  0  0  0  0  0  0  0  0
   -1.8037   -3.1240    0.0000 N   0  0  0  0  0  0  0  0  0  0  0  0
   -0.3771   -3.5875    0.0000 C   0  0  0  0  0  0  0  0  0  0  0  0
    1.1147   -3.4307    0.0000 C   0  0  0  0  0  0  0  0  0  0  0  0
    1.5782   -4.8573    0.0000 C   0  0  0  0  0  0  0  0  0  0  0  0
    2.4138   -2.6807    0.0000 C   0  0  0  0  0  0  0  0  0  0  0  0
    3.4175   -3.7955    0.0000 O   0  0  0  0  0  0  0  0  0  0  0  0
    3.2954   -1.4672    0.0000 C   0  0  0  0  0  0  0  0  0  0  0  0
    4.7726   -1.2067    0.0000 C   0  0  0  0  0  0  0  0  0  0  0  0
    4.0903   -2.7393    0.0000 O   0  0  0  0  0  0  0  0  0  0  0  0
  1  2  1  0
  3  2  1  6
  3  4  1  0
  4  5  1  0
  5  6  2  0
  5  7  1  0
  7  8  1  1
  7  9  1  0
  9 10  1  6
 11 10  1  1
 11 12  1  0
 12 13  1  0
 13 14  1  6
 13 15  1  0
 15 16  1  0
 13 17  1  0
 17 18  1  1
 17 19  1  0
 19 20  1  6
 19 21  1  0
  9 22  1  0
 22 23  1  1
 22 24  1  0
 24 25  1  6
 26 25  1  1
 26 27  1  0
 27 28  1  0
 28 29  1  1
 28 30  1  0
 30 31  1  0
 31 32  1  1
 32 33  1  0
 32 34  1  0
 31 35  1  0
 35 36  1  6
 24 37  1  0
 37 38  1  6
 37 39  1  0
 37 40  1  0
 40 41  1  0
 41 42  1  6
 41 43  1  0
 43 44  1  0
 44 45  1  0
 45 46  1  1
 45 47  1  0
 47 48  1  6
 47 49  1  0
 49 50  1  6
 49 51  1  0
 49  3  1  0
 21 11  1  0
 35 26  1  0
M  END
>  <ChEMBL_IDs>  (261) 
CHEMBL278801

>  <target_organism>  (261) 
None

>  <target_molecule_pref_name>  (261) 
nan

>  <# Known Targets>  (261) 
nan

>  <Known Targets>  (261) 
nan

>  <smiles>  (261) 
CC[C@H]1OC(=O)[C@H](C)[C@@H](O[C@H]2C[C@@](C)(OC)[C@@H](O)[C@H](C)O2)[C@H](C)[C@@H](O[C@@H]2O[C@H](C)C[C@H](N(C)C)[C@H]2O)[C@](C)(O)C[C@@H](C)NC[C@H](C)[C@@H](O)[C@]1(C)O

$$$$

     RDKit          2D

 51 53  0  0  0  0  0  0  0  0999 V2000
    5.8573   -1.2990    0.0000 C   0  0  0  0  0  0  0  0  0  0  0  0
    5.1073    0.0000    0.0000 C   0  0  0  0  0  0  0  0  0  0  0  0
    3.6073    0.0000    0.0000 C   0  0  0  0  0  0  0  0  0  0  0  0
    3.2954    1.4672    0.0000 O   0  0  0  0  0  0  0  0  0  0  0  0
    2.4138    2.6807    0.0000 C   0  0  0  0  0  0  0  0  0  0  0  0
    3.4175    3.7955    0.0000 O   0  0  0  0  0  0  0  0  0  0  0  0
    1.1147    3.4307    0.0000 C   0  0  0  0  0  0  0  0  0  0  0  0
    1.8302    4.5756    0.0000 C   0  0  0  0  0  0  0  0  0  0  0  0
   -0.3771    3.5875    0.0000 C   0  0  0  0  0  0  0  0  0  0  0  0
   -0.5339    5.0793    0.0000 O   0  0  0  0  0  0  0  0  0  0  0  0
    0.6797    5.9610    0.0000 C   0  0  0  0  0  0  0  0  0  0  0  0
    0.5229    7.4528    0.0000 C   0  0  0  0  0  0  0  0  0  0  0  0
    1.7364    8.3345    0.0000 C   0  0  0  0  0  0  0  0  0  0  0  0
    2.5752    9.5780    0.0000 C   0  0  0  0  0  0  0  0  0  0  0  0
    0.6574    9.3764    0.0000 O   0  0  0  0  0  0  0  0  0  0  0  0
   -0.7845    8.9630    0.0000 C   0  0  0  0  0  0  0  0  0  0  0  0
    3.1067    7.7244    0.0000 C   0  0  0  0  0  0  0  0  0  0  0  0
    4.3202    8.6060    0.0000 O   0  0  0  0  0  0  0  0  0  0  0  0
    3.2635    6.2326    0.0000 C   0  0  0  0  0  0  0  0  0  0  0  0
    4.6338    5.6225    0.0000 C   0  0  0  0  0  0  0  0  0  0  0  0
    2.0500    5.3509    0.0000 O   0  0  0  0  0  0  0  0  0  0  0  0
   -1.8037    3.1240    0.0000 C   0  0  0  0  0  0  0  0  0  0  0  0
   -2.5537    4.4231    0.0000 C   0  0  0  0  0  0  0  0  0  0  0  0
   -2.9184    2.1203    0.0000 C   0  0  0  0  0  0  0  0  0  0  0  0
   -4.1319    3.0020    0.0000 O   0  0  0  0  0  0  0  0  0  0  0  0
   -5.5022    2.3919    0.0000 C   0  0  0  0  0  0  0  0  0  0  0  0
   -6.7157    3.2736    0.0000 O   0  0  0  0  0  0  0  0  0  0  0  0
   -8.0861    2.6635    0.0000 C   0  0  0  0  0  0  0  0  0  0  0  0
   -9.2996    3.5451    0.0000 C   0  0  0  0  0  0  0  0  0  0  0  0
   -8.2428    1.1717    0.0000 C   0  0  0  0  0  0  0  0  0  0  0  0
   -7.0293    0.2900    0.0000 C   0  0  0  0  0  0  0  0  0  0  0  0
   -7.1861   -1.2018    0.0000 N   0  0  0  0  0  0  0  0  0  0  0  0
   -8.5564   -1.8119    0.0000 C   0  0  0  0  0  0  0  0  0  0  0  0
   -5.9726   -2.0835    0.0000 C   0  0  0  0  0  0  0  0  0  0  0  0
   -5.6590    0.9001    0.0000 C   0  0  0  0  0  0  0  0  0  0  0  0
   -5.0760    0.3564    0.0000 O   0  0  0  0  0  0  0  0  0  0  0  0
   -3.5285    0.7500    0.0000 C   0  0  0  0  0  0  0  0  0  0  0  0
   -4.2257    0.3635    0.0000 C   0  0  0  0  0  0  0  0  0  0  0  0
   -4.5705    1.8290    0.0000 O   0  0  0  0  0  0  0  0  0  0  0  0
   -3.5285   -0.7500    0.0000 C   0  0  0  0  0  0  0  0  0  0  0  0
   -2.9184   -2.1203    0.0000 C   0  0  0  0  0  0  0  0  0  0  0  0
   -4.1319   -3.0020    0.0000 C   0  0  0  0  0  0  0  0  0  0  0  0
   -1.8037   -3.1240    0.0000 C   0  0  0  0  0  0  0  0  0  0  0  0
   -0.3771   -3.5875    0.0000 N   0  0  0  0  0  0  0  0  0  0  0  0
    1.1147   -3.4307    0.0000 C   0  0  0  0  0  0  0  0  0  0  0  0
    1.5782   -4.8573    0.0000 C   0  0  0  0  0  0  0  0  0  0  0  0
    2.4138   -2.6807    0.0000 C   0  0  0  0  0  0  0  0  0  0  0  0
    3.4175   -3.7955    0.0000 O   0  0  0  0  0  0  0  0  0  0  0  0
    3.2954   -1.4672    0.0000 C   0  0  0  0  0  0  0  0  0  0  0  0
    4.7726   -1.2067    0.0000 C   0  0  0  0  0  0  0  0  0  0  0  0
    4.0903   -2.7393    0.0000 O   0  0  0  0  0  0  0  0  0  0  0  0
  1  2  1  0
  2  3  1  0
  3  4  1  0
  4  5  1  0
  5  6  2  0
  5  7  1  0
  7  8  1  0
  7  9  1  0
  9 10  1  0
 10 11  1  0
 11 12  1  0
 12 13  1  0
 13 14  1  0
 13 15  1  0
 15 16  1  0
 13 17  1  0
 17 18  1  0
 17 19  1  0
 19 20  1  0
 19 21  1  0
  9 22  1  0
 22 23  1  0
 22 24  1  0
 24 25  1  0
 25 26  1  0
 26 27  1  0
 27 28  1  0
 28 29  1  0
 28 30  1  0
 30 31  1  0
 31 32  1  0
 32 33  1  0
 32 34  1  0
 31 35  1  0
 35 36  1  0
 24 37  1  0
 37 38  1  0
 37 39  1  0
 37 40  1  0
 40 41  1  0
 41 42  1  0
 41 43  1  0
 43 44  1  0
 44 45  1  0
 45 46  1  0
 45 47  1  0
 47 48  1  0
 47 49  1  0
 49 50  1  0
 49 51  1  0
 49  3  1  0
 21 11  1  0
 35 26  1  0
M  END
>  <ChEMBL_IDs>  (262) 
nan

>  <target_organism>  (262) 
nan

>  <target_molecule_pref_name>  (262) 
nan

>  <# Known Targets>  (262) 
nan

>  <Known Targets>  (262) 
nan

>  <smiles>  (262) 
CCC1OC(=O)C(C)C(OC2CC(C)(OC)C(O)C(C)O2)C(C)C(OC2OC(C)CC(N(C)C)C2O)C(C)(O)CC(C)CNC(C)C(O)C1(C)O

$$$$

     RDKit          2D

 51 53  0  0  0  0  0  0  0  0999 V2000
    5.8573   -1.2990    0.0000 C   0  0  0  0  0  0  0  0  0  0  0  0
    5.1073    0.0000    0.0000 C   0  0  0  0  0  0  0  0  0  0  0  0
    3.6073    0.0000    0.0000 C   0  0  0  0  0  0  0  0  0  0  0  0
    3.2954    1.4672    0.0000 O   0  0  0  0  0  0  0  0  0  0  0  0
    2.4138    2.6807    0.0000 C   0  0  0  0  0  0  0  0  0  0  0  0
    3.4175    3.7955    0.0000 O   0  0  0  0  0  0  0  0  0  0  0  0
    1.1147    3.4307    0.0000 C   0  0  0  0  0  0  0  0  0  0  0  0
    1.8302    4.5756    0.0000 C   0  0  0  0  0  0  0  0  0  0  0  0
   -0.3771    3.5875    0.0000 C   0  0  0  0  0  0  0  0  0  0  0  0
   -0.5339    5.0793    0.0000 O   0  0  0  0  0  0  0  0  0  0  0  0
    0.6797    5.9610    0.0000 C   0  0  0  0  0  0  0  0  0  0  0  0
    0.5229    7.4528    0.0000 C   0  0  0  0  0  0  0  0  0  0  0  0
    1.7364    8.3345    0.0000 C   0  0  0  0  0  0  0  0  0  0  0  0
    2.5752    9.5780    0.0000 C   0  0  0  0  0  0  0  0  0  0  0  0
    0.6574    9.3764    0.0000 O   0  0  0  0  0  0  0  0  0  0  0  0
    1.0203   10.8319    0.0000 C   0  0  0  0  0  0  0  0  0  0  0  0
    3.1067    7.7244    0.0000 C   0  0  0  0  0  0  0  0  0  0  0  0
    4.3202    8.6060    0.0000 O   0  0  0  0  0  0  0  0  0  0  0  0
    3.2635    6.2326    0.0000 C   0  0  0  0  0  0  0  0  0  0  0  0
    4.6338    5.6225    0.0000 C   0  0  0  0  0  0  0  0  0  0  0  0
    2.0500    5.3509    0.0000 O   0  0  0  0  0  0  0  0  0  0  0  0
   -1.8037    3.1240    0.0000 C   0  0  0  0  0  0  0  0  0  0  0  0
   -2.5537    4.4231    0.0000 C   0  0  0  0  0  0  0  0  0  0  0  0
   -2.9184    2.1203    0.0000 C   0  0  0  0  0  0  0  0  0  0  0  0
   -4.1319    3.0020    0.0000 O   0  0  0  0  0  0  0  0  0  0  0  0
   -5.5022    2.3919    0.0000 C   0  0  0  0  0  0  0  0  0  0  0  0
   -6.7157    3.2736    0.0000 O   0  0  0  0  0  0  0  0  0  0  0  0
   -8.0861    2.6635    0.0000 C   0  0  0  0  0  0  0  0  0  0  0  0
   -9.2996    3.5451    0.0000 C   0  0  0  0  0  0  0  0  0  0  0  0
   -8.2428    1.1717    0.0000 C   0  0  0  0  0  0  0  0  0  0  0  0
   -7.0293    0.2900    0.0000 C   0  0  0  0  0  0  0  0  0  0  0  0
   -7.1861   -1.2018    0.0000 N   0  0  0  0  0  0  0  0  0  0  0  0
   -8.5564   -1.8119    0.0000 C   0  0  0  0  0  0  0  0  0  0  0  0
   -5.6590    0.9001    0.0000 C   0  0  0  0  0  0  0  0  0  0  0  0
   -5.0760    0.3564    0.0000 O   0  0  0  0  0  0  0  0  0  0  0  0
   -3.5285    0.7500    0.0000 C   0  0  0  0  0  0  0  0  0  0  0  0
   -4.2257    0.3635    0.0000 C   0  0  0  0  0  0  0  0  0  0  0  0
   -4.5705    1.8290    0.0000 O   0  0  0  0  0  0  0  0  0  0  0  0
   -3.5285   -0.7500    0.0000 C   0  0  0  0  0  0  0  0  0  0  0  0
   -2.9184   -2.1203    0.0000 C   0  0  0  0  0  0  0  0  0  0  0  0
   -4.1319   -3.0020    0.0000 C   0  0  0  0  0  0  0  0  0  0  0  0
   -1.8037   -3.1240    0.0000 C   0  0  0  0  0  0  0  0  0  0  0  0
   -0.3771   -3.5875    0.0000 N   0  0  0  0  0  0  0  0  0  0  0  0
   -0.5339   -5.0793    0.0000 C   0  0  0  0  0  0  0  0  0  0  0  0
    1.1147   -3.4307    0.0000 C   0  0  0  0  0  0  0  0  0  0  0  0
    1.5782   -4.8573    0.0000 C   0  0  0  0  0  0  0  0  0  0  0  0
    2.4138   -2.6807    0.0000 C   0  0  0  0  0  0  0  0  0  0  0  0
    3.4175   -3.7955    0.0000 O   0  0  0  0  0  0  0  0  0  0  0  0
    3.2954   -1.4672    0.0000 C   0  0  0  0  0  0  0  0  0  0  0  0
    4.7726   -1.2067    0.0000 C   0  0  0  0  0  0  0  0  0  0  0  0
    4.0903   -2.7393    0.0000 O   0  0  0  0  0  0  0  0  0  0  0  0
  1  2  1  0
  3  2  1  6
  3  4  1  0
  4  5  1  0
  5  6  2  0
  5  7  1  0
  7  8  1  1
  7  9  1  0
  9 10  1  6
 11 10  1  1
 11 12  1  0
 12 13  1  0
 13 14  1  6
 13 15  1  0
 15 16  1  0
 13 17  1  0
 17 18  1  1
 17 19  1  0
 19 20  1  6
 19 21  1  0
  9 22  1  0
 22 23  1  1
 22 24  1  0
 24 25  1  6
 26 25  1  1
 26 27  1  0
 27 28  1  0
 28 29  1  1
 28 30  1  0
 30 31  1  0
 31 32  1  1
 32 33  1  0
 31 34  1  0
 34 35  1  6
 24 36  1  0
 36 37  1  6
 36 38  1  0
 36 39  1  0
 39 40  1  0
 40 41  1  6
 40 42  1  0
 42 43  1  0
 43 44  1  0
 43 45  1  0
 45 46  1  1
 45 47  1  0
 47 48  1  6
 47 49  1  0
 49 50  1  6
 49 51  1  0
 49  3  1  0
 21 11  1  0
 34 26  1  0
M  END
>  <ChEMBL_IDs>  (263) 
CHEMBL2022716

>  <target_organism>  (263) 
Staphylococcus aureus

>  <target_molecule_pref_name>  (263) 
nan

>  <# Known Targets>  (263) 
nan

>  <Known Targets>  (263) 
nan

>  <smiles>  (263) 
CC[C@H]1OC(=O)[C@H](C)[C@@H](O[C@H]2C[C@@](C)(OC)[C@@H](O)[C@H](C)O2)[C@H](C)[C@@H](O[C@@H]2O[C@H](C)C[C@H](NC)[C@H]2O)[C@](C)(O)C[C@@H](C)CN(C)[C@H](C)[C@@H](O)[C@]1(C)O

$$$$

     RDKit          2D

 51 53  0  0  0  0  0  0  0  0999 V2000
    8.8706    6.2995    0.0000 C   0  0  0  0  0  0  0  0  0  0  0  0
    7.7915    5.2575    0.0000 O   0  0  0  0  0  0  0  0  0  0  0  0
    6.3497    5.6710    0.0000 C   0  0  0  0  0  0  0  0  0  0  0  0
    7.0072    7.0192    0.0000 C   0  0  0  0  0  0  0  0  0  0  0  0
    6.1929    4.1792    0.0000 C   0  0  0  0  0  0  0  0  0  0  0  0
    4.8225    3.5691    0.0000 C   0  0  0  0  0  0  0  0  0  0  0  0
    4.6658    2.0773    0.0000 O   0  0  0  0  0  0  0  0  0  0  0  0
    3.2954    1.4672    0.0000 C   0  0  0  0  0  0  0  0  0  0  0  0
    3.6073    0.0000    0.0000 C   0  0  0  0  0  0  0  0  0  0  0  0
    5.1073    0.0000    0.0000 C   0  0  0  0  0  0  0  0  0  0  0  0
    3.2954   -1.4672    0.0000 C   0  0  0  0  0  0  0  0  0  0  0  0
    4.6658   -2.0773    0.0000 O   0  0  0  0  0  0  0  0  0  0  0  0
    4.8225   -3.5691    0.0000 C   0  0  0  0  0  0  0  0  0  0  0  0
    3.6090   -4.4508    0.0000 O   0  0  0  0  0  0  0  0  0  0  0  0
    3.7658   -5.9426    0.0000 C   0  0  0  0  0  0  0  0  0  0  0  0
    2.5523   -6.8242    0.0000 C   0  0  0  0  0  0  0  0  0  0  0  0
    5.1361   -6.5527    0.0000 C   0  0  0  0  0  0  0  0  0  0  0  0
    6.3497   -5.6710    0.0000 C   0  0  0  0  0  0  0  0  0  0  0  0
    7.7200   -6.2811    0.0000 N   0  0  0  0  0  0  0  0  0  0  0  0
    7.8768   -7.7729    0.0000 C   0  0  0  0  0  0  0  0  0  0  0  0
    8.9335   -5.3994    0.0000 C   0  0  0  0  0  0  0  0  0  0  0  0
    6.1929   -4.1792    0.0000 C   0  0  0  0  0  0  0  0  0  0  0  0
    7.4064   -3.2975    0.0000 O   0  0  0  0  0  0  0  0  0  0  0  0
    2.4138   -2.6807    0.0000 C   0  0  0  0  0  0  0  0  0  0  0  0
    3.8692   -3.0436    0.0000 C   0  0  0  0  0  0  0  0  0  0  0  0
    2.6225   -4.1661    0.0000 O   0  0  0  0  0  0  0  0  0  0  0  0
    1.4405   -5.0896    0.0000 C   0  0  0  0  0  0  0  0  0  0  0  0
    1.1147   -3.4307    0.0000 C   0  0  0  0  0  0  0  0  0  0  0  0
   -0.3771   -3.5875    0.0000 C   0  0  0  0  0  0  0  0  0  0  0  0
   -0.5339   -5.0793    0.0000 C   0  0  0  0  0  0  0  0  0  0  0  0
   -1.8037   -3.1240    0.0000 C   0  0  0  0  0  0  0  0  0  0  0  0
   -2.5537   -4.4231    0.0000 O   0  0  0  0  0  0  0  0  0  0  0  0
   -2.9184   -2.1203    0.0000 C   0  0  0  0  0  0  0  0  0  0  0  0
   -4.1319   -3.0020    0.0000 C   0  0  0  0  0  0  0  0  0  0  0  0
   -3.5285   -0.7500    0.0000 C   0  0  0  0  0  0  0  0  0  0  0  0
   -3.5285    0.7500    0.0000 N   0  0  0  0  0  0  0  0  0  0  0  0
   -4.9957    1.0619    0.0000 C   0  0  0  0  0  0  0  0  0  0  0  0
   -2.9184    2.1203    0.0000 C   0  0  0  0  0  0  0  0  0  0  0  0
   -4.1319    3.0020    0.0000 C   0  0  0  0  0  0  0  0  0  0  0  0
   -3.9751    4.4938    0.0000 N   0  0  0  0  0  0  0  0  0  0  0  0
   -1.8037    3.1240    0.0000 C   0  0  0  0  0  0  0  0  0  0  0  0
   -0.3771    3.5875    0.0000 O   0  0  0  0  0  0  0  0  0  0  0  0
    1.1147    3.4307    0.0000 C   0  0  0  0  0  0  0  0  0  0  0  0
    1.5782    4.8573    0.0000 O   0  0  0  0  0  0  0  0  0  0  0  0
    2.4138    2.6807    0.0000 C   0  0  0  0  0  0  0  0  0  0  0  0
    3.0475    3.8728    0.0000 C   0  0  0  0  0  0  0  0  0  0  0  0
    3.6090    4.4508    0.0000 O   0  0  0  0  0  0  0  0  0  0  0  0
    3.7658    5.9426    0.0000 C   0  0  0  0  0  0  0  0  0  0  0  0
    2.5523    6.8242    0.0000 C   0  0  0  0  0  0  0  0  0  0  0  0
    5.1361    6.5527    0.0000 C   0  0  0  0  0  0  0  0  0  0  0  0
    5.2929    8.0445    0.0000 O   0  0  0  0  0  0  0  0  0  0  0  0
  1  2  1  0
  2  3  1  0
  3  4  1  1
  3  5  1  0
  5  6  1  0
  6  7  1  6
  8  7  1  1
  8  9  1  0
  9 10  1  6
  9 11  1  0
 11 12  1  1
 13 12  1  1
 13 14  1  0
 14 15  1  0
 15 16  1  1
 15 17  1  0
 17 18  1  0
 18 19  1  1
 19 20  1  0
 19 21  1  0
 18 22  1  0
 22 23  1  6
 11 24  1  0
 24 25  1  1
 24 26  1  0
 26 27  1  0
 24 28  1  0
 28 29  1  0
 29 30  1  1
 29 31  1  0
 31 32  1  6
 31 33  1  0
 33 34  1  6
 33 35  1  0
 35 36  1  0
 36 37  1  0
 36 38  1  0
 38 39  1  1
 39 40  1  0
 38 41  1  0
 41 42  1  0
 42 43  1  0
 43 44  2  0
 43 45  1  0
 45 46  1  6
  6 47  1  0
 47 48  1  0
 48 49  1  1
 48 50  1  0
 50 51  1  6
 50  3  1  0
 45  8  1  0
 22 13  1  0
M  END
>  <ChEMBL_IDs>  (264) 
CHEMBL2146795

>  <target_organism>  (264) 
Plasmodium falciparum

>  <target_molecule_pref_name>  (264) 
nan

>  <# Known Targets>  (264) 
nan

>  <Known Targets>  (264) 
nan

>  <smiles>  (264) 
CO[C@]1(C)C[C@H](O[C@H]2[C@H](C)[C@@H](O[C@@H]3O[C@H](C)C[C@H](N(C)C)[C@H]3O)[C@](C)(OC)C[C@@H](C)[C@H](O)[C@H](C)CN(C)[C@@H](CN)COC(=O)[C@@H]2C)O[C@@H](C)[C@@H]1O

$$$$

     RDKit          2D

 51 53  0  0  0  0  0  0  0  0999 V2000
    6.0944   -1.2990    0.0000 C   0  0  0  0  0  0  0  0  0  0  0  0
    5.3444    0.0000    0.0000 C   0  0  0  0  0  0  0  0  0  0  0  0
    3.8444    0.0000    0.0000 C   0  0  0  0  0  0  0  0  0  0  0  0
    3.5517   -1.4712    0.0000 O   0  0  0  0  0  0  0  0  0  0  0  0
    2.7184   -2.7184    0.0000 C   0  0  0  0  0  0  0  0  0  0  0  0
    3.7790   -3.7790    0.0000 O   0  0  0  0  0  0  0  0  0  0  0  0
    1.4712   -3.5517    0.0000 C   0  0  0  0  0  0  0  0  0  0  0  0
   -0.0000   -3.8444    0.0000 C   0  0  0  0  0  0  0  0  0  0  0  0
   -0.0000   -5.3444    0.0000 O   0  0  0  0  0  0  0  0  0  0  0  0
   -1.4712   -3.5517    0.0000 C   0  0  0  0  0  0  0  0  0  0  0  0
   -1.6507   -4.7534    0.0000 C   0  0  0  0  0  0  0  0  0  0  0  0
   -2.7184   -2.7184    0.0000 C   0  0  0  0  0  0  0  0  0  0  0  0
   -3.7790   -3.7790    0.0000 O   0  0  0  0  0  0  0  0  0  0  0  0
   -3.3908   -5.2279    0.0000 C   0  0  0  0  0  0  0  0  0  0  0  0
   -1.9419   -5.6162    0.0000 O   0  0  0  0  0  0  0  0  0  0  0  0
   -1.5537   -7.0650    0.0000 C   0  0  0  0  0  0  0  0  0  0  0  0
   -0.1048   -7.4533    0.0000 C   0  0  0  0  0  0  0  0  0  0  0  0
   -2.6144   -8.1257    0.0000 C   0  0  0  0  0  0  0  0  0  0  0  0
   -2.2261   -9.5746    0.0000 O   0  0  0  0  0  0  0  0  0  0  0  0
   -0.7772   -9.9628    0.0000 C   0  0  0  0  0  0  0  0  0  0  0  0
   -0.3890  -11.4117    0.0000 C   0  0  0  0  0  0  0  0  0  0  0  0
    1.0599  -11.7999    0.0000 C   0  0  0  0  0  0  0  0  0  0  0  0
    2.2886  -12.6603    0.0000 C   0  0  0  0  0  0  0  0  0  0  0  0
    0.4260  -13.1594    0.0000 O   0  0  0  0  0  0  0  0  0  0  0  0
    2.1205  -10.7393    0.0000 C   0  0  0  0  0  0  0  0  0  0  0  0
    3.5694  -11.1275    0.0000 O   0  0  0  0  0  0  0  0  0  0  0  0
    1.7323   -9.2904    0.0000 C   0  0  0  0  0  0  0  0  0  0  0  0
    2.7930   -8.2297    0.0000 C   0  0  0  0  0  0  0  0  0  0  0  0
    0.2834   -8.9022    0.0000 O   0  0  0  0  0  0  0  0  0  0  0  0
   -4.0632   -7.7375    0.0000 C   0  0  0  0  0  0  0  0  0  0  0  0
   -5.1239   -8.7981    0.0000 N   0  0  0  0  0  0  0  0  0  0  0  0
   -6.5728   -8.4099    0.0000 C   0  0  0  0  0  0  0  0  0  0  0  0
   -4.7357  -10.2470    0.0000 C   0  0  0  0  0  0  0  0  0  0  0  0
   -4.4515   -6.2886    0.0000 C   0  0  0  0  0  0  0  0  0  0  0  0
   -5.9004   -5.9004    0.0000 O   0  0  0  0  0  0  0  0  0  0  0  0
   -3.5517   -1.4712    0.0000 C   0  0  0  0  0  0  0  0  0  0  0  0
   -4.9376   -2.0452    0.0000 C   0  0  0  0  0  0  0  0  0  0  0  0
   -6.1276   -1.1321    0.0000 C   0  0  0  0  0  0  0  0  0  0  0  0
   -7.5134   -1.7061    0.0000 O   0  0  0  0  0  0  0  0  0  0  0  0
   -3.8444    0.0000    0.0000 C   0  0  0  0  0  0  0  0  0  0  0  0
   -3.5517    1.4712    0.0000 C   0  0  0  0  0  0  0  0  0  0  0  0
   -4.9376    2.0452    0.0000 C   0  0  0  0  0  0  0  0  0  0  0  0
   -2.7184    2.7184    0.0000 C   0  0  0  0  0  0  0  0  0  0  0  0
   -3.7790    3.7790    0.0000 O   0  0  0  0  0  0  0  0  0  0  0  0
   -1.4712    3.5517    0.0000 C   0  0  0  0  0  0  0  0  0  0  0  0
    0.0000    3.8444    0.0000 C   0  0  0  0  0  0  0  0  0  0  0  0
    1.4712    3.5517    0.0000 C   0  0  0  0  0  0  0  0  0  0  0  0
    2.0452    4.9376    0.0000 C   0  0  0  0  0  0  0  0  0  0  0  0
    2.7184    2.7184    0.0000 C   0  0  0  0  0  0  0  0  0  0  0  0
    3.5517    1.4712    0.0000 C   0  0  0  0  0  0  0  0  0  0  0  0
    4.9376    2.0452    0.0000 C   0  0  0  0  0  0  0  0  0  0  0  0
  1  2  1  0
  3  2  1  1
  3  4  1  0
  4  5  1  0
  5  6  2  0
  5  7  1  0
  7  8  1  0
  8  9  1  1
  8 10  1  0
 10 11  1  6
 10 12  1  0
 12 13  1  1
 14 13  1  6
 14 15  1  0
 15 16  1  0
 16 17  1  6
 16 18  1  0
 18 19  1  1
 20 19  1  6
 20 21  1  0
 21 22  1  0
 22 23  1  1
 22 24  1  0
 22 25  1  0
 25 26  1  6
 25 27  1  0
 27 28  1  1
 27 29  1  0
 18 30  1  0
 30 31  1  6
 31 32  1  0
 31 33  1  0
 30 34  1  0
 34 35  1  1
 12 36  1  0
 36 37  1  1
 37 38  1  0
 38 39  2  0
 36 40  1  0
 40 41  1  0
 41 42  1  1
 41 43  1  0
 43 44  2  0
 43 45  1  0
 45 46  2  0
 46 47  1  0
 47 48  1  0
 47 49  2  0
 49 50  1  0
 50 51  1  6
 50  3  1  0
 34 14  1  0
 29 20  1  0
M  END
>  <ChEMBL_IDs>  (265) 
CHEMBL296632

>  <target_organism>  (265) 
None

>  <target_molecule_pref_name>  (265) 
nan

>  <# Known Targets>  (265) 
nan

>  <Known Targets>  (265) 
nan

>  <smiles>  (265) 
CC[C@H]1OC(=O)C[C@@H](O)[C@H](C)[C@@H](O[C@@H]2O[C@H](C)[C@@H](O[C@H]3C[C@@](C)(O)[C@@H](O)[C@H](C)O3)[C@H](N(C)C)[C@H]2O)[C@@H](CC=O)C[C@@H](C)C(=O)/C=C/C(C)=C/[C@@H]1C

$$$$

     RDKit          2D

 52 54  0  0  0  0  0  0  0  0999 V2000
    6.0944   -1.2990    0.0000 C   0  0  0  0  0  0  0  0  0  0  0  0
    5.3444    0.0000    0.0000 C   0  0  0  0  0  0  0  0  0  0  0  0
    3.8444    0.0000    0.0000 C   0  0  0  0  0  0  0  0  0  0  0  0
    3.5517   -1.4712    0.0000 O   0  0  0  0  0  0  0  0  0  0  0  0
    2.7184   -2.7184    0.0000 C   0  0  0  0  0  0  0  0  0  0  0  0
    3.7790   -3.7790    0.0000 O   0  0  0  0  0  0  0  0  0  0  0  0
    1.4712   -3.5517    0.0000 C   0  0  0  0  0  0  0  0  0  0  0  0
   -0.0000   -3.8444    0.0000 C   0  0  0  0  0  0  0  0  0  0  0  0
   -0.0000   -5.3444    0.0000 O   0  0  0  0  0  0  0  0  0  0  0  0
   -1.4712   -3.5517    0.0000 C   0  0  0  0  0  0  0  0  0  0  0  0
   -1.6507   -4.7534    0.0000 C   0  0  0  0  0  0  0  0  0  0  0  0
   -2.7184   -2.7184    0.0000 C   0  0  0  0  0  0  0  0  0  0  0  0
   -3.7790   -3.7790    0.0000 O   0  0  0  0  0  0  0  0  0  0  0  0
   -3.3908   -5.2279    0.0000 C   0  0  0  0  0  0  0  0  0  0  0  0
   -1.9419   -5.6162    0.0000 O   0  0  0  0  0  0  0  0  0  0  0  0
   -1.5537   -7.0650    0.0000 C   0  0  0  0  0  0  0  0  0  0  0  0
   -0.1048   -7.4533    0.0000 C   0  0  0  0  0  0  0  0  0  0  0  0
   -2.6144   -8.1257    0.0000 C   0  0  0  0  0  0  0  0  0  0  0  0
   -2.2261   -9.5746    0.0000 O   0  0  0  0  0  0  0  0  0  0  0  0
   -0.7772   -9.9628    0.0000 C   0  0  0  0  0  0  0  0  0  0  0  0
   -0.3890  -11.4117    0.0000 C   0  0  0  0  0  0  0  0  0  0  0  0
    1.0599  -11.7999    0.0000 C   0  0  0  0  0  0  0  0  0  0  0  0
    2.2886  -12.6603    0.0000 C   0  0  0  0  0  0  0  0  0  0  0  0
    0.4260  -13.1594    0.0000 O   0  0  0  0  0  0  0  0  0  0  0  0
    2.1205  -10.7393    0.0000 C   0  0  0  0  0  0  0  0  0  0  0  0
    3.5694  -11.1275    0.0000 O   0  0  0  0  0  0  0  0  0  0  0  0
    1.7323   -9.2904    0.0000 C   0  0  0  0  0  0  0  0  0  0  0  0
    2.7930   -8.2297    0.0000 C   0  0  0  0  0  0  0  0  0  0  0  0
    0.2834   -8.9022    0.0000 O   0  0  0  0  0  0  0  0  0  0  0  0
   -4.0632   -7.7375    0.0000 C   0  0  0  0  0  0  0  0  0  0  0  0
   -5.1239   -8.7981    0.0000 N   0  0  0  0  0  0  0  0  0  0  0  0
   -6.5728   -8.4099    0.0000 C   0  0  0  0  0  0  0  0  0  0  0  0
   -4.7357  -10.2470    0.0000 C   0  0  0  0  0  0  0  0  0  0  0  0
   -4.4515   -6.2886    0.0000 C   0  0  0  0  0  0  0  0  0  0  0  0
   -5.9004   -5.9004    0.0000 O   0  0  0  0  0  0  0  0  0  0  0  0
   -3.5517   -1.4712    0.0000 C   0  0  0  0  0  0  0  0  0  0  0  0
   -4.9376   -2.0452    0.0000 C   0  0  0  0  0  0  0  0  0  0  0  0
   -6.1276   -1.1321    0.0000 C   0  0  0  0  0  0  0  0  0  0  0  0
   -7.5134   -1.7061    0.0000 O   0  0  0  0  0  0  0  0  0  0  0  0
   -3.8444    0.0000    0.0000 C   0  0  0  0  0  0  0  0  0  0  0  0
   -3.5517    1.4712    0.0000 C   0  0  0  0  0  0  0  0  0  0  0  0
   -4.9376    2.0452    0.0000 C   0  0  0  0  0  0  0  0  0  0  0  0
   -2.7184    2.7184    0.0000 C   0  0  0  0  0  0  0  0  0  0  0  0
   -3.7790    3.7790    0.0000 O   0  0  0  0  0  0  0  0  0  0  0  0
   -1.4712    3.5517    0.0000 C   0  0  0  0  0  0  0  0  0  0  0  0
    0.0000    3.8444    0.0000 C   0  0  0  0  0  0  0  0  0  0  0  0
    1.4712    3.5517    0.0000 C   0  0  0  0  0  0  0  0  0  0  0  0
    2.0452    4.9376    0.0000 C   0  0  0  0  0  0  0  0  0  0  0  0
    2.7184    2.7184    0.0000 C   0  0  0  0  0  0  0  0  0  0  0  0
    3.5517    1.4712    0.0000 C   0  0  0  0  0  0  0  0  0  0  0  0
    4.9376    2.0452    0.0000 C   0  0  0  0  0  0  0  0  0  0  0  0
    6.1276    1.1321    0.0000 O   0  0  0  0  0  0  0  0  0  0  0  0
  1  2  1  0
  3  2  1  1
  3  4  1  0
  4  5  1  0
  5  6  2  0
  5  7  1  0
  7  8  1  0
  8  9  1  1
  8 10  1  0
 10 11  1  6
 10 12  1  0
 12 13  1  1
 14 13  1  6
 14 15  1  0
 15 16  1  0
 16 17  1  6
 16 18  1  0
 18 19  1  6
 20 19  1  6
 20 21  1  0
 21 22  1  0
 22 23  1  1
 22 24  1  0
 22 25  1  0
 25 26  1  6
 25 27  1  0
 27 28  1  1
 27 29  1  0
 18 30  1  0
 30 31  1  6
 31 32  1  0
 31 33  1  0
 30 34  1  0
 34 35  1  1
 12 36  1  0
 36 37  1  1
 37 38  1  0
 38 39  2  0
 36 40  1  0
 40 41  1  0
 41 42  1  1
 41 43  1  0
 43 44  2  0
 43 45  1  0
 45 46  2  0
 46 47  1  0
 47 48  1  0
 47 49  2  0
 49 50  1  0
 50 51  1  6
 51 52  1  0
 50  3  1  0
 34 14  1  0
 29 20  1  0
M  END
>  <ChEMBL_IDs>  (266) 
nan

>  <target_organism>  (266) 
nan

>  <target_molecule_pref_name>  (266) 
nan

>  <# Known Targets>  (266) 
nan

>  <Known Targets>  (266) 
nan

>  <smiles>  (266) 
CC[C@H]1OC(=O)C[C@@H](O)[C@H](C)[C@@H](O[C@@H]2O[C@H](C)[C@H](O[C@H]3C[C@@](C)(O)[C@@H](O)[C@H](C)O3)[C@H](N(C)C)[C@H]2O)[C@@H](CC=O)C[C@@H](C)C(=O)/C=C/C(C)=C/[C@@H]1CO

$$$$

     RDKit          2D

 52 54  0  0  0  0  0  0  0  0999 V2000
    6.0944   -1.2990    0.0000 C   0  0  0  0  0  0  0  0  0  0  0  0
    5.3444    0.0000    0.0000 C   0  0  0  0  0  0  0  0  0  0  0  0
    3.8444    0.0000    0.0000 C   0  0  0  0  0  0  0  0  0  0  0  0
    3.5517   -1.4712    0.0000 O   0  0  0  0  0  0  0  0  0  0  0  0
    2.7184   -2.7184    0.0000 C   0  0  0  0  0  0  0  0  0  0  0  0
    3.7790   -3.7790    0.0000 O   0  0  0  0  0  0  0  0  0  0  0  0
    1.4712   -3.5517    0.0000 C   0  0  0  0  0  0  0  0  0  0  0  0
   -0.0000   -3.8444    0.0000 C   0  0  0  0  0  0  0  0  0  0  0  0
   -0.0000   -5.3444    0.0000 O   0  0  0  0  0  0  0  0  0  0  0  0
   -1.4712   -3.5517    0.0000 C   0  0  0  0  0  0  0  0  0  0  0  0
   -1.6507   -4.7534    0.0000 C   0  0  0  0  0  0  0  0  0  0  0  0
   -2.7184   -2.7184    0.0000 C   0  0  0  0  0  0  0  0  0  0  0  0
   -3.7790   -3.7790    0.0000 O   0  0  0  0  0  0  0  0  0  0  0  0
   -3.3908   -5.2279    0.0000 C   0  0  0  0  0  0  0  0  0  0  0  0
   -1.9419   -5.6162    0.0000 O   0  0  0  0  0  0  0  0  0  0  0  0
   -1.5537   -7.0650    0.0000 C   0  0  0  0  0  0  0  0  0  0  0  0
   -0.1048   -7.4533    0.0000 C   0  0  0  0  0  0  0  0  0  0  0  0
   -2.6144   -8.1257    0.0000 C   0  0  0  0  0  0  0  0  0  0  0  0
   -2.2261   -9.5746    0.0000 O   0  0  0  0  0  0  0  0  0  0  0  0
   -0.7772   -9.9628    0.0000 C   0  0  0  0  0  0  0  0  0  0  0  0
   -0.3890  -11.4117    0.0000 C   0  0  0  0  0  0  0  0  0  0  0  0
    1.0599  -11.7999    0.0000 C   0  0  0  0  0  0  0  0  0  0  0  0
    2.2886  -12.6603    0.0000 C   0  0  0  0  0  0  0  0  0  0  0  0
    0.4260  -13.1594    0.0000 O   0  0  0  0  0  0  0  0  0  0  0  0
    2.1205  -10.7393    0.0000 C   0  0  0  0  0  0  0  0  0  0  0  0
    3.5694  -11.1275    0.0000 O   0  0  0  0  0  0  0  0  0  0  0  0
    1.7323   -9.2904    0.0000 C   0  0  0  0  0  0  0  0  0  0  0  0
    2.7930   -8.2297    0.0000 C   0  0  0  0  0  0  0  0  0  0  0  0
    0.2834   -8.9022    0.0000 O   0  0  0  0  0  0  0  0  0  0  0  0
   -4.0632   -7.7375    0.0000 C   0  0  0  0  0  0  0  0  0  0  0  0
   -5.1239   -8.7981    0.0000 N   0  0  0  0  0  0  0  0  0  0  0  0
   -6.5728   -8.4099    0.0000 C   0  0  0  0  0  0  0  0  0  0  0  0
   -4.7357  -10.2470    0.0000 C   0  0  0  0  0  0  0  0  0  0  0  0
   -4.4515   -6.2886    0.0000 C   0  0  0  0  0  0  0  0  0  0  0  0
   -5.9004   -5.9004    0.0000 O   0  0  0  0  0  0  0  0  0  0  0  0
   -3.5517   -1.4712    0.0000 C   0  0  0  0  0  0  0  0  0  0  0  0
   -4.9376   -2.0452    0.0000 C   0  0  0  0  0  0  0  0  0  0  0  0
   -6.1276   -1.1321    0.0000 C   0  0  0  0  0  0  0  0  0  0  0  0
   -7.5134   -1.7061    0.0000 O   0  0  0  0  0  0  0  0  0  0  0  0
   -3.8444    0.0000    0.0000 C   0  0  0  0  0  0  0  0  0  0  0  0
   -3.5517    1.4712    0.0000 C   0  0  0  0  0  0  0  0  0  0  0  0
   -4.9376    2.0452    0.0000 C   0  0  0  0  0  0  0  0  0  0  0  0
   -2.7184    2.7184    0.0000 C   0  0  0  0  0  0  0  0  0  0  0  0
   -3.7790    3.7790    0.0000 O   0  0  0  0  0  0  0  0  0  0  0  0
   -1.4712    3.5517    0.0000 C   0  0  0  0  0  0  0  0  0  0  0  0
    0.0000    3.8444    0.0000 C   0  0  0  0  0  0  0  0  0  0  0  0
    1.4712    3.5517    0.0000 C   0  0  0  0  0  0  0  0  0  0  0  0
    2.0452    4.9376    0.0000 C   0  0  0  0  0  0  0  0  0  0  0  0
    2.7184    2.7184    0.0000 C   0  0  0  0  0  0  0  0  0  0  0  0
    3.5517    1.4712    0.0000 C   0  0  0  0  0  0  0  0  0  0  0  0
    4.9376    2.0452    0.0000 C   0  0  0  0  0  0  0  0  0  0  0  0
    6.1276    1.1321    0.0000 O   0  0  0  0  0  0  0  0  0  0  0  0
  1  2  1  0
  3  2  1  1
  3  4  1  0
  4  5  1  0
  5  6  2  0
  5  7  1  0
  7  8  1  0
  8  9  1  1
  8 10  1  0
 10 11  1  6
 10 12  1  0
 12 13  1  1
 14 13  1  6
 14 15  1  0
 15 16  1  0
 16 17  1  6
 16 18  1  0
 18 19  1  1
 20 19  1  6
 20 21  1  0
 21 22  1  0
 22 23  1  1
 22 24  1  0
 22 25  1  0
 25 26  1  6
 25 27  1  0
 27 28  1  1
 27 29  1  0
 18 30  1  0
 30 31  1  6
 31 32  1  0
 31 33  1  0
 30 34  1  0
 34 35  1  1
 12 36  1  0
 36 37  1  1
 37 38  1  0
 38 39  2  0
 36 40  1  0
 40 41  1  0
 41 42  1  1
 41 43  1  0
 43 44  2  0
 43 45  1  0
 45 46  2  0
 46 47  1  0
 47 48  1  0
 47 49  2  0
 49 50  1  0
 50 51  1  6
 51 52  1  0
 50  3  1  0
 34 14  1  0
 29 20  1  0
M  END
>  <ChEMBL_IDs>  (267) 
CHEMBL296337

>  <target_organism>  (267) 
None

>  <target_molecule_pref_name>  (267) 
nan

>  <# Known Targets>  (267) 
nan

>  <Known Targets>  (267) 
nan

>  <smiles>  (267) 
CC[C@H]1OC(=O)C[C@@H](O)[C@H](C)[C@@H](O[C@@H]2O[C@H](C)[C@@H](O[C@H]3C[C@@](C)(O)[C@@H](O)[C@H](C)O3)[C@H](N(C)C)[C@H]2O)[C@@H](CC=O)C[C@@H](C)C(=O)/C=C/C(C)=C/[C@@H]1CO

$$$$

     RDKit          2D

 52 54  0  0  0  0  0  0  0  0999 V2000
    6.0944   -1.2990    0.0000 C   0  0  0  0  0  0  0  0  0  0  0  0
    5.3444    0.0000    0.0000 C   0  0  0  0  0  0  0  0  0  0  0  0
    3.8444    0.0000    0.0000 C   0  0  0  0  0  0  0  0  0  0  0  0
    3.5517   -1.4712    0.0000 O   0  0  0  0  0  0  0  0  0  0  0  0
    2.7184   -2.7184    0.0000 C   0  0  0  0  0  0  0  0  0  0  0  0
    3.7790   -3.7790    0.0000 O   0  0  0  0  0  0  0  0  0  0  0  0
    1.4712   -3.5517    0.0000 C   0  0  0  0  0  0  0  0  0  0  0  0
   -0.0000   -3.8444    0.0000 C   0  0  0  0  0  0  0  0  0  0  0  0
   -0.0000   -5.3444    0.0000 O   0  0  0  0  0  0  0  0  0  0  0  0
   -1.4712   -3.5517    0.0000 C   0  0  0  0  0  0  0  0  0  0  0  0
   -1.6507   -4.7534    0.0000 C   0  0  0  0  0  0  0  0  0  0  0  0
   -2.7184   -2.7184    0.0000 C   0  0  0  0  0  0  0  0  0  0  0  0
   -3.7790   -3.7790    0.0000 O   0  0  0  0  0  0  0  0  0  0  0  0
   -3.3908   -5.2279    0.0000 C   0  0  0  0  0  0  0  0  0  0  0  0
   -1.9419   -5.6162    0.0000 O   0  0  0  0  0  0  0  0  0  0  0  0
   -1.5537   -7.0650    0.0000 C   0  0  0  0  0  0  0  0  0  0  0  0
   -0.1048   -7.4533    0.0000 C   0  0  0  0  0  0  0  0  0  0  0  0
   -2.6144   -8.1257    0.0000 C   0  0  0  0  0  0  0  0  0  0  0  0
   -2.2261   -9.5746    0.0000 O   0  0  0  0  0  0  0  0  0  0  0  0
   -0.7772   -9.9628    0.0000 C   0  0  0  0  0  0  0  0  0  0  0  0
   -0.3890  -11.4117    0.0000 C   0  0  0  0  0  0  0  0  0  0  0  0
    1.0599  -11.7999    0.0000 C   0  0  0  0  0  0  0  0  0  0  0  0
    2.2886  -12.6603    0.0000 C   0  0  0  0  0  0  0  0  0  0  0  0
    0.4260  -13.1594    0.0000 O   0  0  0  0  0  0  0  0  0  0  0  0
    2.1205  -10.7393    0.0000 C   0  0  0  0  0  0  0  0  0  0  0  0
    3.5694  -11.1275    0.0000 O   0  0  0  0  0  0  0  0  0  0  0  0
    1.7323   -9.2904    0.0000 C   0  0  0  0  0  0  0  0  0  0  0  0
    2.7930   -8.2297    0.0000 C   0  0  0  0  0  0  0  0  0  0  0  0
    0.2834   -8.9022    0.0000 O   0  0  0  0  0  0  0  0  0  0  0  0
   -4.0632   -7.7375    0.0000 C   0  0  0  0  0  0  0  0  0  0  0  0
   -5.1239   -8.7981    0.0000 N   0  0  0  0  0  0  0  0  0  0  0  0
   -6.5728   -8.4099    0.0000 C   0  0  0  0  0  0  0  0  0  0  0  0
   -4.7357  -10.2470    0.0000 C   0  0  0  0  0  0  0  0  0  0  0  0
   -4.4515   -6.2886    0.0000 C   0  0  0  0  0  0  0  0  0  0  0  0
   -5.9004   -5.9004    0.0000 O   0  0  0  0  0  0  0  0  0  0  0  0
   -3.5517   -1.4712    0.0000 C   0  0  0  0  0  0  0  0  0  0  0  0
   -4.9376   -2.0452    0.0000 C   0  0  0  0  0  0  0  0  0  0  0  0
   -6.1276   -1.1321    0.0000 C   0  0  0  0  0  0  0  0  0  0  0  0
   -7.5134   -1.7061    0.0000 O   0  0  0  0  0  0  0  0  0  0  0  0
   -3.8444    0.0000    0.0000 C   0  0  0  0  0  0  0  0  0  0  0  0
   -3.5517    1.4712    0.0000 C   0  0  0  0  0  0  0  0  0  0  0  0
   -4.9376    2.0452    0.0000 C   0  0  0  0  0  0  0  0  0  0  0  0
   -2.7184    2.7184    0.0000 C   0  0  0  0  0  0  0  0  0  0  0  0
   -3.7790    3.7790    0.0000 O   0  0  0  0  0  0  0  0  0  0  0  0
   -1.4712    3.5517    0.0000 C   0  0  0  0  0  0  0  0  0  0  0  0
    0.0000    3.8444    0.0000 C   0  0  0  0  0  0  0  0  0  0  0  0
    1.4712    3.5517    0.0000 C   0  0  0  0  0  0  0  0  0  0  0  0
    2.0452    4.9376    0.0000 C   0  0  0  0  0  0  0  0  0  0  0  0
    2.7184    2.7184    0.0000 C   0  0  0  0  0  0  0  0  0  0  0  0
    3.5517    1.4712    0.0000 C   0  0  0  0  0  0  0  0  0  0  0  0
    4.9376    2.0452    0.0000 C   0  0  0  0  0  0  0  0  0  0  0  0
    6.1276    1.1321    0.0000 O   0  0  0  0  0  0  0  0  0  0  0  0
  1  2  1  0
  2  3  1  0
  3  4  1  0
  4  5  1  0
  5  6  2  0
  5  7  1  0
  7  8  1  0
  8  9  1  0
  8 10  1  0
 10 11  1  0
 10 12  1  0
 12 13  1  0
 13 14  1  0
 14 15  1  0
 15 16  1  0
 16 17  1  0
 16 18  1  0
 18 19  1  0
 19 20  1  0
 20 21  1  0
 21 22  1  0
 22 23  1  0
 22 24  1  0
 22 25  1  0
 25 26  1  0
 25 27  1  0
 27 28  1  0
 27 29  1  0
 18 30  1  0
 30 31  1  0
 31 32  1  0
 31 33  1  0
 30 34  1  0
 34 35  1  0
 12 36  1  0
 36 37  1  0
 37 38  1  0
 38 39  2  0
 36 40  1  0
 40 41  1  0
 41 42  1  0
 41 43  1  0
 43 44  2  0
 43 45  1  0
 45 46  2  0
 46 47  1  0
 47 48  1  0
 47 49  2  0
 49 50  1  0
 50 51  1  0
 51 52  1  0
 50  3  1  0
 34 14  1  0
 29 20  1  0
M  END
>  <ChEMBL_IDs>  (268) 
nan

>  <target_organism>  (268) 
nan

>  <target_molecule_pref_name>  (268) 
nan

>  <# Known Targets>  (268) 
nan

>  <Known Targets>  (268) 
nan

>  <smiles>  (268) 
CCC1OC(=O)CC(O)C(C)C(OC2OC(C)C(OC3CC(C)(O)C(O)C(C)O3)C(N(C)C)C2O)C(CC=O)CC(C)C(=O)/C=C\C(C)=C/C1CO

$$$$

     RDKit          2D

 52 54  0  0  0  0  0  0  0  0999 V2000
    6.0944   -1.2990    0.0000 C   0  0  0  0  0  0  0  0  0  0  0  0
    5.3444    0.0000    0.0000 C   0  0  0  0  0  0  0  0  0  0  0  0
    3.8444    0.0000    0.0000 C   0  0  0  0  0  0  0  0  0  0  0  0
    3.5517   -1.4712    0.0000 O   0  0  0  0  0  0  0  0  0  0  0  0
    2.7184   -2.7184    0.0000 C   0  0  0  0  0  0  0  0  0  0  0  0
    3.7790   -3.7790    0.0000 O   0  0  0  0  0  0  0  0  0  0  0  0
    1.4712   -3.5517    0.0000 C   0  0  0  0  0  0  0  0  0  0  0  0
   -0.0000   -3.8444    0.0000 C   0  0  0  0  0  0  0  0  0  0  0  0
   -0.0000   -5.3444    0.0000 O   0  0  0  0  0  0  0  0  0  0  0  0
   -1.4712   -3.5517    0.0000 C   0  0  0  0  0  0  0  0  0  0  0  0
   -1.6507   -4.7534    0.0000 C   0  0  0  0  0  0  0  0  0  0  0  0
   -2.7184   -2.7184    0.0000 C   0  0  0  0  0  0  0  0  0  0  0  0
   -3.7790   -3.7790    0.0000 O   0  0  0  0  0  0  0  0  0  0  0  0
   -3.3908   -5.2279    0.0000 C   0  0  0  0  0  0  0  0  0  0  0  0
   -1.9419   -5.6162    0.0000 O   0  0  0  0  0  0  0  0  0  0  0  0
   -1.5537   -7.0650    0.0000 C   0  0  0  0  0  0  0  0  0  0  0  0
   -0.1048   -7.4533    0.0000 C   0  0  0  0  0  0  0  0  0  0  0  0
   -2.6144   -8.1257    0.0000 C   0  0  0  0  0  0  0  0  0  0  0  0
   -2.2261   -9.5746    0.0000 O   0  0  0  0  0  0  0  0  0  0  0  0
   -0.7772   -9.9628    0.0000 C   0  0  0  0  0  0  0  0  0  0  0  0
   -0.3890  -11.4117    0.0000 C   0  0  0  0  0  0  0  0  0  0  0  0
    1.0599  -11.7999    0.0000 C   0  0  0  0  0  0  0  0  0  0  0  0
    2.2886  -12.6603    0.0000 C   0  0  0  0  0  0  0  0  0  0  0  0
    0.4260  -13.1594    0.0000 O   0  0  0  0  0  0  0  0  0  0  0  0
    2.1205  -10.7393    0.0000 C   0  0  0  0  0  0  0  0  0  0  0  0
    3.5694  -11.1275    0.0000 O   0  0  0  0  0  0  0  0  0  0  0  0
    1.7323   -9.2904    0.0000 C   0  0  0  0  0  0  0  0  0  0  0  0
    2.7930   -8.2297    0.0000 C   0  0  0  0  0  0  0  0  0  0  0  0
    0.2834   -8.9022    0.0000 O   0  0  0  0  0  0  0  0  0  0  0  0
   -4.0632   -7.7375    0.0000 C   0  0  0  0  0  0  0  0  0  0  0  0
   -5.1239   -8.7981    0.0000 N   0  0  0  0  0  0  0  0  0  0  0  0
   -6.5728   -8.4099    0.0000 C   0  0  0  0  0  0  0  0  0  0  0  0
   -4.7357  -10.2470    0.0000 C   0  0  0  0  0  0  0  0  0  0  0  0
   -4.4515   -6.2886    0.0000 C   0  0  0  0  0  0  0  0  0  0  0  0
   -5.9004   -5.9004    0.0000 O   0  0  0  0  0  0  0  0  0  0  0  0
   -3.5517   -1.4712    0.0000 C   0  0  0  0  0  0  0  0  0  0  0  0
   -4.9376   -2.0452    0.0000 C   0  0  0  0  0  0  0  0  0  0  0  0
   -6.1276   -1.1321    0.0000 C   0  0  0  0  0  0  0  0  0  0  0  0
   -7.5134   -1.7061    0.0000 O   0  0  0  0  0  0  0  0  0  0  0  0
   -3.8444    0.0000    0.0000 C   0  0  0  0  0  0  0  0  0  0  0  0
   -3.5517    1.4712    0.0000 C   0  0  0  0  0  0  0  0  0  0  0  0
   -4.9376    2.0452    0.0000 C   0  0  0  0  0  0  0  0  0  0  0  0
   -2.7184    2.7184    0.0000 C   0  0  0  0  0  0  0  0  0  0  0  0
   -3.7790    3.7790    0.0000 O   0  0  0  0  0  0  0  0  0  0  0  0
   -1.4712    3.5517    0.0000 C   0  0  0  0  0  0  0  0  0  0  0  0
    0.0000    3.8444    0.0000 C   0  0  0  0  0  0  0  0  0  0  0  0
    1.4712    3.5517    0.0000 C   0  0  0  0  0  0  0  0  0  0  0  0
    2.0452    4.9376    0.0000 C   0  0  0  0  0  0  0  0  0  0  0  0
    2.7184    2.7184    0.0000 C   0  0  0  0  0  0  0  0  0  0  0  0
    3.5517    1.4712    0.0000 C   0  0  0  0  0  0  0  0  0  0  0  0
    4.9376    2.0452    0.0000 C   0  0  0  0  0  0  0  0  0  0  0  0
    6.1276    1.1321    0.0000 O   0  0  0  0  0  0  0  0  0  0  0  0
  1  2  1  0
  2  3  1  0
  3  4  1  0
  4  5  1  0
  5  6  2  0
  5  7  1  0
  7  8  1  0
  8  9  1  0
  8 10  1  0
 10 11  1  0
 10 12  1  0
 12 13  1  0
 13 14  1  0
 14 15  1  0
 15 16  1  0
 16 17  1  0
 16 18  1  0
 18 19  1  0
 19 20  1  0
 20 21  1  0
 21 22  1  0
 22 23  1  0
 22 24  1  0
 22 25  1  0
 25 26  1  0
 25 27  1  0
 27 28  1  0
 27 29  1  0
 18 30  1  0
 30 31  1  0
 31 32  1  0
 31 33  1  0
 30 34  1  0
 34 35  1  0
 12 36  1  0
 36 37  1  0
 37 38  1  0
 38 39  2  0
 36 40  1  0
 40 41  1  0
 41 42  1  0
 41 43  1  0
 43 44  2  0
 43 45  1  0
 45 46  2  0
 46 47  1  0
 47 48  1  0
 47 49  2  0
 49 50  1  0
 50 51  1  0
 51 52  1  0
 50  3  1  0
 34 14  1  0
 29 20  1  0
M  END
>  <ChEMBL_IDs>  (269) 
nan

>  <target_organism>  (269) 
nan

>  <target_molecule_pref_name>  (269) 
nan

>  <# Known Targets>  (269) 
nan

>  <Known Targets>  (269) 
nan

>  <smiles>  (269) 
CCC1OC(=O)CC(O)C(C)C(OC2OC(C)C(OC3CC(C)(O)C(O)C(C)O3)C(N(C)C)C2O)C(CC=O)CC(C)C(=O)/C=C\C(C)=C/C1CO

$$$$

     RDKit          2D

 52 54  0  0  0  0  0  0  0  0999 V2000
    6.0944   -1.2990    0.0000 C   0  0  0  0  0  0  0  0  0  0  0  0
    5.3444    0.0000    0.0000 C   0  0  0  0  0  0  0  0  0  0  0  0
    3.8444    0.0000    0.0000 C   0  0  0  0  0  0  0  0  0  0  0  0
    3.5517   -1.4712    0.0000 O   0  0  0  0  0  0  0  0  0  0  0  0
    2.7184   -2.7184    0.0000 C   0  0  0  0  0  0  0  0  0  0  0  0
    3.7790   -3.7790    0.0000 O   0  0  0  0  0  0  0  0  0  0  0  0
    1.4712   -3.5517    0.0000 C   0  0  0  0  0  0  0  0  0  0  0  0
   -0.0000   -3.8444    0.0000 C   0  0  0  0  0  0  0  0  0  0  0  0
   -0.0000   -5.3444    0.0000 O   0  0  0  0  0  0  0  0  0  0  0  0
   -1.4712   -3.5517    0.0000 C   0  0  0  0  0  0  0  0  0  0  0  0
   -1.6507   -4.7534    0.0000 C   0  0  0  0  0  0  0  0  0  0  0  0
   -2.7184   -2.7184    0.0000 C   0  0  0  0  0  0  0  0  0  0  0  0
   -3.7790   -3.7790    0.0000 O   0  0  0  0  0  0  0  0  0  0  0  0
   -3.3908   -5.2279    0.0000 C   0  0  0  0  0  0  0  0  0  0  0  0
   -1.9419   -5.6162    0.0000 O   0  0  0  0  0  0  0  0  0  0  0  0
   -1.5537   -7.0650    0.0000 C   0  0  0  0  0  0  0  0  0  0  0  0
   -0.1048   -7.4533    0.0000 C   0  0  0  0  0  0  0  0  0  0  0  0
   -2.6144   -8.1257    0.0000 C   0  0  0  0  0  0  0  0  0  0  0  0
   -2.2261   -9.5746    0.0000 O   0  0  0  0  0  0  0  0  0  0  0  0
   -0.7772   -9.9628    0.0000 C   0  0  0  0  0  0  0  0  0  0  0  0
   -0.3890  -11.4117    0.0000 C   0  0  0  0  0  0  0  0  0  0  0  0
    1.0599  -11.7999    0.0000 C   0  0  0  0  0  0  0  0  0  0  0  0
    2.2886  -12.6603    0.0000 C   0  0  0  0  0  0  0  0  0  0  0  0
    0.4260  -13.1594    0.0000 O   0  0  0  0  0  0  0  0  0  0  0  0
    2.1205  -10.7393    0.0000 C   0  0  0  0  0  0  0  0  0  0  0  0
    3.5694  -11.1275    0.0000 O   0  0  0  0  0  0  0  0  0  0  0  0
    1.7323   -9.2904    0.0000 C   0  0  0  0  0  0  0  0  0  0  0  0
    2.7930   -8.2297    0.0000 C   0  0  0  0  0  0  0  0  0  0  0  0
    0.2834   -8.9022    0.0000 O   0  0  0  0  0  0  0  0  0  0  0  0
   -4.0632   -7.7375    0.0000 C   0  0  0  0  0  0  0  0  0  0  0  0
   -5.1239   -8.7981    0.0000 N   0  0  0  0  0  0  0  0  0  0  0  0
   -6.5728   -8.4099    0.0000 C   0  0  0  0  0  0  0  0  0  0  0  0
   -4.7357  -10.2470    0.0000 C   0  0  0  0  0  0  0  0  0  0  0  0
   -4.4515   -6.2886    0.0000 C   0  0  0  0  0  0  0  0  0  0  0  0
   -5.9004   -5.9004    0.0000 O   0  0  0  0  0  0  0  0  0  0  0  0
   -3.5517   -1.4712    0.0000 C   0  0  0  0  0  0  0  0  0  0  0  0
   -4.9376   -2.0452    0.0000 C   0  0  0  0  0  0  0  0  0  0  0  0
   -6.1276   -1.1321    0.0000 C   0  0  0  0  0  0  0  0  0  0  0  0
   -7.5134   -1.7061    0.0000 O   0  0  0  0  0  0  0  0  0  0  0  0
   -3.8444    0.0000    0.0000 C   0  0  0  0  0  0  0  0  0  0  0  0
   -3.5517    1.4712    0.0000 C   0  0  0  0  0  0  0  0  0  0  0  0
   -4.9376    2.0452    0.0000 C   0  0  0  0  0  0  0  0  0  0  0  0
   -2.7184    2.7184    0.0000 C   0  0  0  0  0  0  0  0  0  0  0  0
   -3.7790    3.7790    0.0000 O   0  0  0  0  0  0  0  0  0  0  0  0
   -1.4712    3.5517    0.0000 C   0  0  0  0  0  0  0  0  0  0  0  0
    0.0000    3.8444    0.0000 C   0  0  0  0  0  0  0  0  0  0  0  0
    1.4712    3.5517    0.0000 C   0  0  0  0  0  0  0  0  0  0  0  0
    2.0452    4.9376    0.0000 C   0  0  0  0  0  0  0  0  0  0  0  0
    2.7184    2.7184    0.0000 C   0  0  0  0  0  0  0  0  0  0  0  0
    3.5517    1.4712    0.0000 C   0  0  0  0  0  0  0  0  0  0  0  0
    4.9376    2.0452    0.0000 C   0  0  0  0  0  0  0  0  0  0  0  0
    6.1276    1.1321    0.0000 O   0  0  0  0  0  0  0  0  0  0  0  0
  1  2  1  0
  2  3  1  0
  3  4  1  0
  4  5  1  0
  5  6  2  0
  5  7  1  0
  7  8  1  0
  8  9  1  0
  8 10  1  0
 10 11  1  0
 10 12  1  0
 12 13  1  0
 13 14  1  0
 14 15  1  0
 15 16  1  0
 16 17  1  0
 16 18  1  0
 18 19  1  0
 19 20  1  0
 20 21  1  0
 21 22  1  0
 22 23  1  0
 22 24  1  0
 22 25  1  0
 25 26  1  0
 25 27  1  0
 27 28  1  0
 27 29  1  0
 18 30  1  0
 30 31  1  0
 31 32  1  0
 31 33  1  0
 30 34  1  0
 34 35  1  0
 12 36  1  0
 36 37  1  0
 37 38  1  0
 38 39  2  0
 36 40  1  0
 40 41  1  0
 41 42  1  0
 41 43  1  0
 43 44  2  0
 43 45  1  0
 45 46  2  0
 46 47  1  0
 47 48  1  0
 47 49  2  0
 49 50  1  0
 50 51  1  0
 51 52  1  0
 50  3  1  0
 34 14  1  0
 29 20  1  0
M  END
>  <ChEMBL_IDs>  (270) 
nan

>  <target_organism>  (270) 
nan

>  <target_molecule_pref_name>  (270) 
nan

>  <# Known Targets>  (270) 
nan

>  <Known Targets>  (270) 
nan

>  <smiles>  (270) 
CCC1OC(=O)CC(O)C(C)C(OC2OC(C)C(OC3CC(C)(O)C(O)C(C)O3)C(N(C)C)C2O)C(CC=O)CC(C)C(=O)/C=C\C(C)=C/C1CO

$$$$

     RDKit          2D

 53 55  0  0  0  0  0  0  0  0999 V2000
    6.0944   -3.8971    0.0000 C   0  0  0  0  0  0  0  0  0  0  0  0
    5.3444   -2.5981    0.0000 C   0  0  0  0  0  0  0  0  0  0  0  0
    6.0944   -1.2990    0.0000 C   0  0  0  0  0  0  0  0  0  0  0  0
    7.5944   -1.2990    0.0000 O   0  0  0  0  0  0  0  0  0  0  0  0
    5.3444   -0.0000    0.0000 O   0  0  0  0  0  0  0  0  0  0  0  0
    3.8444    0.0000    0.0000 C   0  0  0  0  0  0  0  0  0  0  0  0
    3.5517   -1.4712    0.0000 C   0  0  0  0  0  0  0  0  0  0  0  0
    2.7184   -2.7184    0.0000 C   0  0  0  0  0  0  0  0  0  0  0  0
    3.7790   -3.7790    0.0000 O   0  0  0  0  0  0  0  0  0  0  0  0
    1.4712   -3.5517    0.0000 O   0  0  0  0  0  0  0  0  0  0  0  0
   -0.0000   -3.8444    0.0000 C   0  0  0  0  0  0  0  0  0  0  0  0
   -0.0000   -5.3444    0.0000 C   0  0  0  0  0  0  0  0  0  0  0  0
   -1.4712   -3.5517    0.0000 C   0  0  0  0  0  0  0  0  0  0  0  0
   -2.7184   -2.7184    0.0000 C   0  0  0  0  0  0  0  0  0  0  0  0
   -3.5517   -1.4712    0.0000 C   0  0  0  0  0  0  0  0  0  0  0  0
   -3.8444    0.0000    0.0000 C   0  0  0  0  0  0  0  0  0  0  0  0
   -3.5517    1.4712    0.0000 C   0  0  0  0  0  0  0  0  0  0  0  0
   -2.7184    2.7184    0.0000 C   0  0  0  0  0  0  0  0  0  0  0  0
   -3.7790    3.7790    0.0000 O   0  0  0  0  0  0  0  0  0  0  0  0
   -1.4712    3.5517    0.0000 C   0  0  0  0  0  0  0  0  0  0  0  0
   -2.0452    4.9376    0.0000 C   0  0  0  0  0  0  0  0  0  0  0  0
    0.0000    3.8444    0.0000 C   0  0  0  0  0  0  0  0  0  0  0  0
    1.4712    3.5517    0.0000 C   0  0  0  0  0  0  0  0  0  0  0  0
    2.0452    4.9376    0.0000 C   0  0  0  0  0  0  0  0  0  0  0  0
    3.5324    5.1333    0.0000 C   0  0  0  0  0  0  0  0  0  0  0  0
    4.1064    6.5192    0.0000 O   0  0  0  0  0  0  0  0  0  0  0  0
    2.7184    2.7184    0.0000 C   0  0  0  0  0  0  0  0  0  0  0  0
    3.7790    3.7790    0.0000 O   0  0  0  0  0  0  0  0  0  0  0  0
    5.2279    3.3908    0.0000 C   0  0  0  0  0  0  0  0  0  0  0  0
    5.6162    1.9419    0.0000 O   0  0  0  0  0  0  0  0  0  0  0  0
    7.0650    1.5537    0.0000 C   0  0  0  0  0  0  0  0  0  0  0  0
    7.4533    0.1048    0.0000 C   0  0  0  0  0  0  0  0  0  0  0  0
    8.1257    2.6144    0.0000 C   0  0  0  0  0  0  0  0  0  0  0  0
    9.5746    2.2261    0.0000 O   0  0  0  0  0  0  0  0  0  0  0  0
    9.9628    0.7772    0.0000 C   0  0  0  0  0  0  0  0  0  0  0  0
   11.4117    0.3890    0.0000 C   0  0  0  0  0  0  0  0  0  0  0  0
   11.7999   -1.0599    0.0000 C   0  0  0  0  0  0  0  0  0  0  0  0
   12.6603   -2.2886    0.0000 C   0  0  0  0  0  0  0  0  0  0  0  0
   13.1594   -0.4260    0.0000 O   0  0  0  0  0  0  0  0  0  0  0  0
   10.7393   -2.1205    0.0000 C   0  0  0  0  0  0  0  0  0  0  0  0
   11.1275   -3.5694    0.0000 O   0  0  0  0  0  0  0  0  0  0  0  0
    9.2904   -1.7323    0.0000 C   0  0  0  0  0  0  0  0  0  0  0  0
    8.2297   -2.7930    0.0000 C   0  0  0  0  0  0  0  0  0  0  0  0
    8.9022   -0.2834    0.0000 O   0  0  0  0  0  0  0  0  0  0  0  0
    7.7375    4.0632    0.0000 C   0  0  0  0  0  0  0  0  0  0  0  0
    8.7981    5.1239    0.0000 N   0  0  0  0  0  0  0  0  0  0  0  0
    8.4099    6.5728    0.0000 C   0  0  0  0  0  0  0  0  0  0  0  0
   10.2470    4.7357    0.0000 C   0  0  0  0  0  0  0  0  0  0  0  0
    6.2886    4.4515    0.0000 C   0  0  0  0  0  0  0  0  0  0  0  0
    5.9004    5.9004    0.0000 O   0  0  0  0  0  0  0  0  0  0  0  0
    3.5517    1.4712    0.0000 C   0  0  0  0  0  0  0  0  0  0  0  0
    4.9376    2.0452    0.0000 O   0  0  0  0  0  0  0  0  0  0  0  0
    6.1276    1.1321    0.0000 C   0  0  0  0  0  0  0  0  0  0  0  0
  1  2  1  0
  2  3  1  0
  3  4  2  0
  3  5  1  0
  5  6  1  0
  6  7  1  0
  7  8  1  0
  8  9  2  0
  8 10  1  0
 10 11  1  0
 11 12  1  0
 11 13  1  0
 13 14  1  0
 14 15  2  0
 15 16  1  0
 16 17  2  0
 17 18  1  0
 18 19  1  0
 18 20  1  0
 20 21  1  0
 20 22  1  0
 22 23  1  0
 23 24  1  0
 24 25  1  0
 25 26  2  0
 23 27  1  0
 27 28  1  0
 28 29  1  0
 29 30  1  0
 30 31  1  0
 31 32  1  0
 31 33  1  0
 33 34  1  0
 34 35  1  0
 35 36  1  0
 36 37  1  0
 37 38  1  0
 37 39  1  0
 37 40  1  0
 40 41  1  0
 40 42  1  0
 42 43  1  0
 42 44  1  0
 33 45  1  0
 45 46  1  0
 46 47  1  0
 46 48  1  0
 45 49  1  0
 49 50  1  0
 27 51  1  0
 51 52  1  0
 52 53  1  0
 51  6  1  0
 49 29  1  0
 44 35  1  0
M  END
>  <ChEMBL_IDs>  (271) 
nan

>  <target_organism>  (271) 
nan

>  <target_molecule_pref_name>  (271) 
nan

>  <# Known Targets>  (271) 
nan

>  <Known Targets>  (271) 
nan

>  <smiles>  (271) 
CCC(=O)OC1CC(=O)OC(C)C/C=C\C=C/C(O)C(C)CC(CC=O)C(OC2OC(C)C(OC3CC(C)(O)C(O)C(C)O3)C(N(C)C)C2O)C1OC

$$$$

     RDKit          2D

 53 55  0  0  0  0  0  0  0  0999 V2000
   15.0299   -9.0377    0.0000 C   0  0  0  0  0  0  0  0  0  0  0  0
   13.8398   -9.9509    0.0000 C   0  0  0  0  0  0  0  0  0  0  0  0
   12.4540   -9.3768    0.0000 C   0  0  0  0  0  0  0  0  0  0  0  0
   12.2582   -7.8897    0.0000 O   0  0  0  0  0  0  0  0  0  0  0  0
   11.2640  -10.2900    0.0000 O   0  0  0  0  0  0  0  0  0  0  0  0
    9.8782   -9.7159    0.0000 C   0  0  0  0  0  0  0  0  0  0  0  0
    9.6824   -8.2288    0.0000 C   0  0  0  0  0  0  0  0  0  0  0  0
   10.8724   -7.3156    0.0000 C   0  0  0  0  0  0  0  0  0  0  0  0
    8.2966   -7.6548    0.0000 O   0  0  0  0  0  0  0  0  0  0  0  0
    7.1065   -8.5679    0.0000 C   0  0  0  0  0  0  0  0  0  0  0  0
    5.7207   -7.9939    0.0000 O   0  0  0  0  0  0  0  0  0  0  0  0
    5.5249   -6.5067    0.0000 C   0  0  0  0  0  0  0  0  0  0  0  0
    4.1391   -5.9327    0.0000 C   0  0  0  0  0  0  0  0  0  0  0  0
    2.9491   -6.8458    0.0000 C   0  0  0  0  0  0  0  0  0  0  0  0
    3.9433   -4.4455    0.0000 O   0  0  0  0  0  0  0  0  0  0  0  0
    5.1333   -3.5324    0.0000 C   0  0  0  0  0  0  0  0  0  0  0  0
    4.9376   -2.0452    0.0000 O   0  0  0  0  0  0  0  0  0  0  0  0
    3.5517   -1.4712    0.0000 C   0  0  0  0  0  0  0  0  0  0  0  0
    3.8444    0.0000    0.0000 C   0  0  0  0  0  0  0  0  0  0  0  0
    5.3444   -0.0000    0.0000 C   0  0  0  0  0  0  0  0  0  0  0  0
    6.0944   -1.2990    0.0000 C   0  0  0  0  0  0  0  0  0  0  0  0
    7.5944   -1.2990    0.0000 O   0  0  0  0  0  0  0  0  0  0  0  0
    3.5517    1.4712    0.0000 C   0  0  0  0  0  0  0  0  0  0  0  0
    2.7184    2.7184    0.0000 C   0  0  0  0  0  0  0  0  0  0  0  0
    3.7790    3.7790    0.0000 C   0  0  0  0  0  0  0  0  0  0  0  0
    1.4712    3.5517    0.0000 C   0  0  0  0  0  0  0  0  0  0  0  0
    2.0452    4.9376    0.0000 O   0  0  0  0  0  0  0  0  0  0  0  0
    0.0000    3.8444    0.0000 C   0  0  0  0  0  0  0  0  0  0  0  0
   -1.4712    3.5517    0.0000 C   0  0  0  0  0  0  0  0  0  0  0  0
   -2.7184    2.7184    0.0000 C   0  0  0  0  0  0  0  0  0  0  0  0
   -3.5517    1.4712    0.0000 C   0  0  0  0  0  0  0  0  0  0  0  0
   -3.8444    0.0000    0.0000 C   0  0  0  0  0  0  0  0  0  0  0  0
   -3.5517   -1.4712    0.0000 C   0  0  0  0  0  0  0  0  0  0  0  0
   -4.9376   -2.0452    0.0000 C   0  0  0  0  0  0  0  0  0  0  0  0
   -2.7184   -2.7184    0.0000 O   0  0  0  0  0  0  0  0  0  0  0  0
   -1.4712   -3.5517    0.0000 C   0  0  0  0  0  0  0  0  0  0  0  0
   -2.0452   -4.9376    0.0000 O   0  0  0  0  0  0  0  0  0  0  0  0
    0.0000   -3.8444    0.0000 C   0  0  0  0  0  0  0  0  0  0  0  0
    1.4712   -3.5517    0.0000 C   0  0  0  0  0  0  0  0  0  0  0  0
    2.0452   -4.9376    0.0000 O   0  0  0  0  0  0  0  0  0  0  0  0
    2.7184   -2.7184    0.0000 C   0  0  0  0  0  0  0  0  0  0  0  0
    3.7790   -3.7790    0.0000 O   0  0  0  0  0  0  0  0  0  0  0  0
    3.3908   -5.2279    0.0000 C   0  0  0  0  0  0  0  0  0  0  0  0
    6.5192   -4.1064    0.0000 C   0  0  0  0  0  0  0  0  0  0  0  0
    7.7092   -3.1933    0.0000 O   0  0  0  0  0  0  0  0  0  0  0  0
    6.7150   -5.5936    0.0000 C   0  0  0  0  0  0  0  0  0  0  0  0
    8.1008   -6.1676    0.0000 N   0  0  0  0  0  0  0  0  0  0  0  0
    8.6506   -7.5632    0.0000 C   0  0  0  0  0  0  0  0  0  0  0  0
    9.2908   -5.2544    0.0000 C   0  0  0  0  0  0  0  0  0  0  0  0
    7.3023  -10.0551    0.0000 C   0  0  0  0  0  0  0  0  0  0  0  0
    8.6881  -10.6291    0.0000 C   0  0  0  0  0  0  0  0  0  0  0  0
    7.8822  -11.8942    0.0000 C   0  0  0  0  0  0  0  0  0  0  0  0
    9.7941  -11.6425    0.0000 O   0  0  0  0  0  0  0  0  0  0  0  0
  1  2  1  0
  2  3  1  0
  3  4  2  0
  3  5  1  0
  5  6  1  0
  6  7  1  0
  7  8  1  0
  7  9  1  0
  9 10  1  0
 10 11  1  0
 11 12  1  0
 12 13  1  0
 13 14  1  0
 13 15  1  0
 15 16  1  0
 16 17  1  0
 17 18  1  0
 18 19  1  0
 19 20  1  0
 20 21  1  0
 21 22  2  0
 19 23  1  0
 23 24  1  0
 24 25  1  0
 24 26  1  0
 26 27  1  0
 26 28  1  0
 28 29  2  0
 29 30  1  0
 30 31  2  0
 31 32  1  0
 32 33  1  0
 33 34  1  0
 33 35  1  0
 35 36  1  0
 36 37  2  0
 36 38  1  0
 38 39  1  0
 39 40  1  0
 39 41  1  0
 41 42  1  0
 42 43  1  0
 16 44  1  0
 44 45  1  0
 44 46  1  0
 46 47  1  0
 47 48  1  0
 47 49  1  0
 10 50  1  0
 50 51  1  0
 51 52  1  0
 51 53  1  0
 51  6  1  0
 46 12  1  0
 41 18  1  0
M  END
>  <ChEMBL_IDs>  (272) 
nan

>  <target_organism>  (272) 
nan

>  <target_molecule_pref_name>  (272) 
nan

>  <# Known Targets>  (272) 
nan

>  <Known Targets>  (272) 
nan

>  <smiles>  (272) 
CCC(=O)OC1C(C)OC(OC2C(C)OC(OC3C(CC=O)CC(C)C(O)/C=C\C=C/CC(C)OC(=O)CC(O)C3OC)C(O)C2N(C)C)CC1(C)O

$$$$

     RDKit          2D

 53 55  0  0  0  0  0  0  0  0999 V2000
    6.0944   -1.2990    0.0000 C   0  0  0  0  0  0  0  0  0  0  0  0
    5.3444    0.0000    0.0000 C   0  0  0  0  0  0  0  0  0  0  0  0
    3.8444    0.0000    0.0000 C   0  0  0  0  0  0  0  0  0  0  0  0
    3.5517   -1.4712    0.0000 O   0  0  0  0  0  0  0  0  0  0  0  0
    2.7184   -2.7184    0.0000 C   0  0  0  0  0  0  0  0  0  0  0  0
    3.7790   -3.7790    0.0000 O   0  0  0  0  0  0  0  0  0  0  0  0
    1.4712   -3.5517    0.0000 C   0  0  0  0  0  0  0  0  0  0  0  0
   -0.0000   -3.8444    0.0000 C   0  0  0  0  0  0  0  0  0  0  0  0
   -0.0000   -5.3444    0.0000 O   0  0  0  0  0  0  0  0  0  0  0  0
   -1.4712   -3.5517    0.0000 C   0  0  0  0  0  0  0  0  0  0  0  0
   -1.6507   -4.7534    0.0000 C   0  0  0  0  0  0  0  0  0  0  0  0
   -2.7184   -2.7184    0.0000 C   0  0  0  0  0  0  0  0  0  0  0  0
   -3.7790   -3.7790    0.0000 O   0  0  0  0  0  0  0  0  0  0  0  0
   -3.3908   -5.2279    0.0000 C   0  0  0  0  0  0  0  0  0  0  0  0
   -1.9419   -5.6162    0.0000 O   0  0  0  0  0  0  0  0  0  0  0  0
   -1.5537   -7.0650    0.0000 C   0  0  0  0  0  0  0  0  0  0  0  0
   -0.1048   -7.4533    0.0000 C   0  0  0  0  0  0  0  0  0  0  0  0
   -2.6144   -8.1257    0.0000 C   0  0  0  0  0  0  0  0  0  0  0  0
   -2.2261   -9.5746    0.0000 O   0  0  0  0  0  0  0  0  0  0  0  0
   -4.0632   -7.7375    0.0000 C   0  0  0  0  0  0  0  0  0  0  0  0
   -5.1239   -8.7981    0.0000 N   0  0  0  0  0  0  0  0  0  0  0  0
   -6.5728   -8.4099    0.0000 C   0  0  0  0  0  0  0  0  0  0  0  0
   -4.7357  -10.2470    0.0000 C   0  0  0  0  0  0  0  0  0  0  0  0
   -4.4515   -6.2886    0.0000 C   0  0  0  0  0  0  0  0  0  0  0  0
   -5.9004   -5.9004    0.0000 O   0  0  0  0  0  0  0  0  0  0  0  0
   -3.5517   -1.4712    0.0000 C   0  0  0  0  0  0  0  0  0  0  0  0
   -4.9376   -2.0452    0.0000 C   0  0  0  0  0  0  0  0  0  0  0  0
   -6.1276   -1.1321    0.0000 C   0  0  0  0  0  0  0  0  0  0  0  0
   -7.5134   -1.7061    0.0000 O   0  0  0  0  0  0  0  0  0  0  0  0
   -3.8444    0.0000    0.0000 C   0  0  0  0  0  0  0  0  0  0  0  0
   -3.5517    1.4712    0.0000 C   0  0  0  0  0  0  0  0  0  0  0  0
   -4.9376    2.0452    0.0000 C   0  0  0  0  0  0  0  0  0  0  0  0
   -2.7184    2.7184    0.0000 C   0  0  0  0  0  0  0  0  0  0  0  0
   -3.7790    3.7790    0.0000 O   0  0  0  0  0  0  0  0  0  0  0  0
   -1.4712    3.5517    0.0000 C   0  0  0  0  0  0  0  0  0  0  0  0
    0.0000    3.8444    0.0000 C   0  0  0  0  0  0  0  0  0  0  0  0
    1.4712    3.5517    0.0000 C   0  0  0  0  0  0  0  0  0  0  0  0
    2.0452    4.9376    0.0000 C   0  0  0  0  0  0  0  0  0  0  0  0
    2.7184    2.7184    0.0000 C   0  0  0  0  0  0  0  0  0  0  0  0
    3.5517    1.4712    0.0000 C   0  0  0  0  0  0  0  0  0  0  0  0
    4.9376    2.0452    0.0000 C   0  0  0  0  0  0  0  0  0  0  0  0
    6.1276    1.1321    0.0000 O   0  0  0  0  0  0  0  0  0  0  0  0
    7.5134    1.7061    0.0000 C   0  0  0  0  0  0  0  0  0  0  0  0
    8.7034    0.7929    0.0000 O   0  0  0  0  0  0  0  0  0  0  0  0
   10.0893    1.3670    0.0000 C   0  0  0  0  0  0  0  0  0  0  0  0
   11.2793    0.4538    0.0000 C   0  0  0  0  0  0  0  0  0  0  0  0
   10.2850    2.8541    0.0000 C   0  0  0  0  0  0  0  0  0  0  0  0
   11.6709    3.4282    0.0000 O   0  0  0  0  0  0  0  0  0  0  0  0
    9.0950    3.7673    0.0000 C   0  0  0  0  0  0  0  0  0  0  0  0
    9.2908    5.2544    0.0000 O   0  0  0  0  0  0  0  0  0  0  0  0
    7.7092    3.1933    0.0000 C   0  0  0  0  0  0  0  0  0  0  0  0
    6.5192    4.1064    0.0000 O   0  0  0  0  0  0  0  0  0  0  0  0
    6.7150    5.5936    0.0000 C   0  0  0  0  0  0  0  0  0  0  0  0
  1  2  1  0
  3  2  1  1
  3  4  1  0
  4  5  1  0
  5  6  2  0
  5  7  1  0
  7  8  1  0
  8  9  1  1
  8 10  1  0
 10 11  1  6
 10 12  1  0
 12 13  1  1
 14 13  1  6
 14 15  1  0
 15 16  1  0
 16 17  1  6
 16 18  1  0
 18 19  1  1
 18 20  1  0
 20 21  1  6
 21 22  1  0
 21 23  1  0
 20 24  1  0
 24 25  1  1
 12 26  1  0
 26 27  1  1
 27 28  1  0
 28 29  2  0
 26 30  1  0
 30 31  1  0
 31 32  1  1
 31 33  1  0
 33 34  2  0
 33 35  1  0
 35 36  2  0
 36 37  1  0
 37 38  1  0
 37 39  2  0
 39 40  1  0
 40 41  1  6
 41 42  1  0
 43 42  1  1
 43 44  1  0
 44 45  1  0
 45 46  1  1
 45 47  1  0
 47 48  1  6
 47 49  1  0
 49 50  1  6
 49 51  1  0
 51 52  1  6
 52 53  1  0
 40  3  1  0
 51 43  1  0
 24 14  1  0
M  END
>  <ChEMBL_IDs>  (273) 
CHEMBL42666

>  <target_organism>  (273) 
Rattus norvegicus

>  <target_molecule_pref_name>  (273) 
nan

>  <# Known Targets>  (273) 
nan

>  <Known Targets>  (273) 
nan

>  <smiles>  (273) 
CC[C@H]1OC(=O)C[C@@H](O)[C@H](C)[C@@H](O[C@@H]2O[C@H](C)[C@@H](O)[C@H](N(C)C)[C@H]2O)[C@@H](CC=O)C[C@@H](C)C(=O)/C=C/C(C)=C/[C@@H]1CO[C@@H]1O[C@H](C)[C@@H](O)[C@@H](O)[C@H]1OC

$$$$

     RDKit          2D

 53 55  0  0  0  0  0  0  0  0999 V2000
    6.0944   -1.2990    0.0000 C   0  0  0  0  0  0  0  0  0  0  0  0
    5.3444    0.0000    0.0000 C   0  0  0  0  0  0  0  0  0  0  0  0
    3.8444    0.0000    0.0000 C   0  0  0  0  0  0  0  0  0  0  0  0
    3.5517   -1.4712    0.0000 O   0  0  0  0  0  0  0  0  0  0  0  0
    2.7184   -2.7184    0.0000 C   0  0  0  0  0  0  0  0  0  0  0  0
    3.7790   -3.7790    0.0000 O   0  0  0  0  0  0  0  0  0  0  0  0
    1.4712   -3.5517    0.0000 C   0  0  0  0  0  0  0  0  0  0  0  0
   -0.0000   -3.8444    0.0000 C   0  0  0  0  0  0  0  0  0  0  0  0
   -0.0000   -5.3444    0.0000 O   0  0  0  0  0  0  0  0  0  0  0  0
   -1.4712   -3.5517    0.0000 C   0  0  0  0  0  0  0  0  0  0  0  0
   -1.6507   -4.7534    0.0000 C   0  0  0  0  0  0  0  0  0  0  0  0
   -2.7184   -2.7184    0.0000 C   0  0  0  0  0  0  0  0  0  0  0  0
   -3.7790   -3.7790    0.0000 O   0  0  0  0  0  0  0  0  0  0  0  0
   -3.3908   -5.2279    0.0000 C   0  0  0  0  0  0  0  0  0  0  0  0
   -1.9419   -5.6162    0.0000 O   0  0  0  0  0  0  0  0  0  0  0  0
   -1.5537   -7.0650    0.0000 C   0  0  0  0  0  0  0  0  0  0  0  0
   -0.1048   -7.4533    0.0000 C   0  0  0  0  0  0  0  0  0  0  0  0
   -2.6144   -8.1257    0.0000 C   0  0  0  0  0  0  0  0  0  0  0  0
   -2.2261   -9.5746    0.0000 O   0  0  0  0  0  0  0  0  0  0  0  0
   -4.0632   -7.7375    0.0000 C   0  0  0  0  0  0  0  0  0  0  0  0
   -5.1239   -8.7981    0.0000 N   0  0  0  0  0  0  0  0  0  0  0  0
   -6.5728   -8.4099    0.0000 C   0  0  0  0  0  0  0  0  0  0  0  0
   -4.7357  -10.2470    0.0000 C   0  0  0  0  0  0  0  0  0  0  0  0
   -4.4515   -6.2886    0.0000 C   0  0  0  0  0  0  0  0  0  0  0  0
   -5.9004   -5.9004    0.0000 O   0  0  0  0  0  0  0  0  0  0  0  0
   -3.5517   -1.4712    0.0000 C   0  0  0  0  0  0  0  0  0  0  0  0
   -4.9376   -2.0452    0.0000 C   0  0  0  0  0  0  0  0  0  0  0  0
   -6.1276   -1.1321    0.0000 C   0  0  0  0  0  0  0  0  0  0  0  0
   -7.5134   -1.7061    0.0000 O   0  0  0  0  0  0  0  0  0  0  0  0
   -3.8444    0.0000    0.0000 C   0  0  0  0  0  0  0  0  0  0  0  0
   -3.5517    1.4712    0.0000 C   0  0  0  0  0  0  0  0  0  0  0  0
   -4.9376    2.0452    0.0000 C   0  0  0  0  0  0  0  0  0  0  0  0
   -2.7184    2.7184    0.0000 C   0  0  0  0  0  0  0  0  0  0  0  0
   -3.7790    3.7790    0.0000 O   0  0  0  0  0  0  0  0  0  0  0  0
   -1.4712    3.5517    0.0000 C   0  0  0  0  0  0  0  0  0  0  0  0
    0.0000    3.8444    0.0000 C   0  0  0  0  0  0  0  0  0  0  0  0
    1.4712    3.5517    0.0000 C   0  0  0  0  0  0  0  0  0  0  0  0
    2.0452    4.9376    0.0000 C   0  0  0  0  0  0  0  0  0  0  0  0
    2.7184    2.7184    0.0000 C   0  0  0  0  0  0  0  0  0  0  0  0
    3.5517    1.4712    0.0000 C   0  0  0  0  0  0  0  0  0  0  0  0
    4.9376    2.0452    0.0000 C   0  0  0  0  0  0  0  0  0  0  0  0
    6.1276    1.1321    0.0000 O   0  0  0  0  0  0  0  0  0  0  0  0
    7.5134    1.7061    0.0000 C   0  0  0  0  0  0  0  0  0  0  0  0
    8.7034    0.7929    0.0000 O   0  0  0  0  0  0  0  0  0  0  0  0
   10.0893    1.3670    0.0000 C   0  0  0  0  0  0  0  0  0  0  0  0
   11.2793    0.4538    0.0000 C   0  0  0  0  0  0  0  0  0  0  0  0
   10.2850    2.8541    0.0000 C   0  0  0  0  0  0  0  0  0  0  0  0
   11.6709    3.4282    0.0000 O   0  0  0  0  0  0  0  0  0  0  0  0
    9.0950    3.7673    0.0000 C   0  0  0  0  0  0  0  0  0  0  0  0
    9.2908    5.2544    0.0000 O   0  0  0  0  0  0  0  0  0  0  0  0
    7.7092    3.1933    0.0000 C   0  0  0  0  0  0  0  0  0  0  0  0
    6.5192    4.1064    0.0000 O   0  0  0  0  0  0  0  0  0  0  0  0
    6.7150    5.5936    0.0000 C   0  0  0  0  0  0  0  0  0  0  0  0
  1  2  1  0
  2  3  1  0
  3  4  1  0
  4  5  1  0
  5  6  2  0
  5  7  1  0
  7  8  1  0
  8  9  1  0
  8 10  1  0
 10 11  1  0
 10 12  1  0
 12 13  1  0
 13 14  1  0
 14 15  1  0
 15 16  1  0
 16 17  1  0
 16 18  1  0
 18 19  1  0
 18 20  1  0
 20 21  1  0
 21 22  1  0
 21 23  1  0
 20 24  1  0
 24 25  1  0
 12 26  1  0
 26 27  1  0
 27 28  1  0
 28 29  2  0
 26 30  1  0
 30 31  1  0
 31 32  1  0
 31 33  1  0
 33 34  2  0
 33 35  1  0
 35 36  2  0
 36 37  1  0
 37 38  1  0
 37 39  2  0
 39 40  1  0
 40 41  1  0
 41 42  1  0
 42 43  1  0
 43 44  1  0
 44 45  1  0
 45 46  1  0
 45 47  1  0
 47 48  1  0
 47 49  1  0
 49 50  1  0
 49 51  1  0
 51 52  1  0
 52 53  1  0
 40  3  1  0
 51 43  1  0
 24 14  1  0
M  END
>  <ChEMBL_IDs>  (274) 
nan

>  <target_organism>  (274) 
nan

>  <target_molecule_pref_name>  (274) 
nan

>  <# Known Targets>  (274) 
nan

>  <Known Targets>  (274) 
nan

>  <smiles>  (274) 
CCC1OC(=O)CC(O)C(C)C(OC2OC(C)C(O)C(N(C)C)C2O)C(CC=O)CC(C)C(=O)/C=C\C(C)=C/C1COC1OC(C)C(O)C(O)C1OC

$$$$

     RDKit          2D

 53 55  0  0  0  0  0  0  0  0999 V2000
    6.0944   -3.8971    0.0000 C   0  0  0  0  0  0  0  0  0  0  0  0
    5.3444   -2.5981    0.0000 C   0  0  0  0  0  0  0  0  0  0  0  0
    6.0944   -1.2990    0.0000 C   0  0  0  0  0  0  0  0  0  0  0  0
    7.5944   -1.2990    0.0000 O   0  0  0  0  0  0  0  0  0  0  0  0
    5.3444   -0.0000    0.0000 O   0  0  0  0  0  0  0  0  0  0  0  0
    3.8444    0.0000    0.0000 C   0  0  0  0  0  0  0  0  0  0  0  0
    3.5517   -1.4712    0.0000 C   0  0  0  0  0  0  0  0  0  0  0  0
    2.7184   -2.7184    0.0000 C   0  0  0  0  0  0  0  0  0  0  0  0
    3.7790   -3.7790    0.0000 O   0  0  0  0  0  0  0  0  0  0  0  0
    1.4712   -3.5517    0.0000 O   0  0  0  0  0  0  0  0  0  0  0  0
   -0.0000   -3.8444    0.0000 C   0  0  0  0  0  0  0  0  0  0  0  0
   -0.0000   -5.3444    0.0000 C   0  0  0  0  0  0  0  0  0  0  0  0
   -1.4712   -3.5517    0.0000 C   0  0  0  0  0  0  0  0  0  0  0  0
   -2.7184   -2.7184    0.0000 C   0  0  0  0  0  0  0  0  0  0  0  0
   -3.5517   -1.4712    0.0000 C   0  0  0  0  0  0  0  0  0  0  0  0
   -3.8444    0.0000    0.0000 C   0  0  0  0  0  0  0  0  0  0  0  0
   -3.5517    1.4712    0.0000 C   0  0  0  0  0  0  0  0  0  0  0  0
   -2.7184    2.7184    0.0000 C   0  0  0  0  0  0  0  0  0  0  0  0
   -3.7790    3.7790    0.0000 O   0  0  0  0  0  0  0  0  0  0  0  0
   -1.4712    3.5517    0.0000 C   0  0  0  0  0  0  0  0  0  0  0  0
   -2.0452    4.9376    0.0000 C   0  0  0  0  0  0  0  0  0  0  0  0
    0.0000    3.8444    0.0000 C   0  0  0  0  0  0  0  0  0  0  0  0
    1.4712    3.5517    0.0000 C   0  0  0  0  0  0  0  0  0  0  0  0
    2.0452    4.9376    0.0000 C   0  0  0  0  0  0  0  0  0  0  0  0
    3.5324    5.1333    0.0000 C   0  0  0  0  0  0  0  0  0  0  0  0
    1.1321    6.1276    0.0000 O   0  0  0  0  0  0  0  0  0  0  0  0
    2.7184    2.7184    0.0000 C   0  0  0  0  0  0  0  0  0  0  0  0
    3.7790    3.7790    0.0000 O   0  0  0  0  0  0  0  0  0  0  0  0
    5.2279    3.3908    0.0000 C   0  0  0  0  0  0  0  0  0  0  0  0
    5.6162    1.9419    0.0000 O   0  0  0  0  0  0  0  0  0  0  0  0
    7.0650    1.5537    0.0000 C   0  0  0  0  0  0  0  0  0  0  0  0
    7.4533    0.1048    0.0000 C   0  0  0  0  0  0  0  0  0  0  0  0
    8.1257    2.6144    0.0000 C   0  0  0  0  0  0  0  0  0  0  0  0
    9.5746    2.2261    0.0000 O   0  0  0  0  0  0  0  0  0  0  0  0
    9.9628    0.7772    0.0000 C   0  0  0  0  0  0  0  0  0  0  0  0
   11.4117    0.3890    0.0000 C   0  0  0  0  0  0  0  0  0  0  0  0
   11.7999   -1.0599    0.0000 C   0  0  0  0  0  0  0  0  0  0  0  0
   12.6603   -2.2886    0.0000 C   0  0  0  0  0  0  0  0  0  0  0  0
   13.1594   -0.4260    0.0000 O   0  0  0  0  0  0  0  0  0  0  0  0
   10.7393   -2.1205    0.0000 C   0  0  0  0  0  0  0  0  0  0  0  0
   11.1275   -3.5694    0.0000 O   0  0  0  0  0  0  0  0  0  0  0  0
    9.2904   -1.7323    0.0000 C   0  0  0  0  0  0  0  0  0  0  0  0
    8.2297   -2.7930    0.0000 C   0  0  0  0  0  0  0  0  0  0  0  0
    8.9022   -0.2834    0.0000 O   0  0  0  0  0  0  0  0  0  0  0  0
    7.7375    4.0632    0.0000 C   0  0  0  0  0  0  0  0  0  0  0  0
    8.7981    5.1239    0.0000 N   0  0  0  0  0  0  0  0  0  0  0  0
    8.4099    6.5728    0.0000 C   0  0  0  0  0  0  0  0  0  0  0  0
   10.2470    4.7357    0.0000 C   0  0  0  0  0  0  0  0  0  0  0  0
    6.2886    4.4515    0.0000 C   0  0  0  0  0  0  0  0  0  0  0  0
    5.9004    5.9004    0.0000 O   0  0  0  0  0  0  0  0  0  0  0  0
    3.5517    1.4712    0.0000 C   0  0  0  0  0  0  0  0  0  0  0  0
    4.9376    2.0452    0.0000 O   0  0  0  0  0  0  0  0  0  0  0  0
    6.1276    1.1321    0.0000 C   0  0  0  0  0  0  0  0  0  0  0  0
  1  2  1  0
  2  3  1  0
  3  4  2  0
  3  5  1  0
  5  6  1  0
  6  7  1  0
  7  8  1  0
  8  9  2  0
  8 10  1  0
 10 11  1  0
 11 12  1  0
 11 13  1  0
 13 14  1  0
 14 15  2  0
 15 16  1  0
 16 17  2  0
 17 18  1  0
 18 19  1  0
 18 20  1  0
 20 21  1  0
 20 22  1  0
 22 23  1  0
 23 24  1  0
 24 25  1  0
 24 26  2  0
 23 27  1  0
 27 28  1  0
 28 29  1  0
 29 30  1  0
 30 31  1  0
 31 32  1  0
 31 33  1  0
 33 34  1  0
 34 35  1  0
 35 36  1  0
 36 37  1  0
 37 38  1  0
 37 39  1  0
 37 40  1  0
 40 41  1  0
 40 42  1  0
 42 43  1  0
 42 44  1  0
 33 45  1  0
 45 46  1  0
 46 47  1  0
 46 48  1  0
 45 49  1  0
 49 50  1  0
 27 51  1  0
 51 52  1  0
 52 53  1  0
 51  6  1  0
 49 29  1  0
 44 35  1  0
M  END
>  <ChEMBL_IDs>  (275) 
nan

>  <target_organism>  (275) 
nan

>  <target_molecule_pref_name>  (275) 
nan

>  <# Known Targets>  (275) 
nan

>  <Known Targets>  (275) 
nan

>  <smiles>  (275) 
CCC(=O)OC1CC(=O)OC(C)C/C=C\C=C/C(O)C(C)CC(C(C)=O)C(OC2OC(C)C(OC3CC(C)(O)C(O)C(C)O3)C(N(C)C)C2O)C1OC

$$$$

     RDKit          2D

 53 55  0  0  0  0  0  0  0  0999 V2000
    6.0944   -1.2990    0.0000 C   0  0  0  0  0  0  0  0  0  0  0  0
    5.3444    0.0000    0.0000 C   0  0  0  0  0  0  0  0  0  0  0  0
    3.8444    0.0000    0.0000 C   0  0  0  0  0  0  0  0  0  0  0  0
    3.5517   -1.4712    0.0000 O   0  0  0  0  0  0  0  0  0  0  0  0
    2.7184   -2.7184    0.0000 C   0  0  0  0  0  0  0  0  0  0  0  0
    3.7790   -3.7790    0.0000 O   0  0  0  0  0  0  0  0  0  0  0  0
    1.4712   -3.5517    0.0000 C   0  0  0  0  0  0  0  0  0  0  0  0
   -0.0000   -3.8444    0.0000 C   0  0  0  0  0  0  0  0  0  0  0  0
   -0.0000   -5.3444    0.0000 O   0  0  0  0  0  0  0  0  0  0  0  0
   -1.4712   -3.5517    0.0000 C   0  0  0  0  0  0  0  0  0  0  0  0
   -1.6507   -4.7534    0.0000 C   0  0  0  0  0  0  0  0  0  0  0  0
   -2.7184   -2.7184    0.0000 C   0  0  0  0  0  0  0  0  0  0  0  0
   -3.7790   -3.7790    0.0000 O   0  0  0  0  0  0  0  0  0  0  0  0
   -3.3908   -5.2279    0.0000 C   0  0  0  0  0  0  0  0  0  0  0  0
   -1.9419   -5.6162    0.0000 O   0  0  0  0  0  0  0  0  0  0  0  0
   -1.5537   -7.0650    0.0000 C   0  0  0  0  0  0  0  0  0  0  0  0
   -0.1048   -7.4533    0.0000 C   0  0  0  0  0  0  0  0  0  0  0  0
   -2.6144   -8.1257    0.0000 C   0  0  0  0  0  0  0  0  0  0  0  0
   -2.2261   -9.5746    0.0000 O   0  0  0  0  0  0  0  0  0  0  0  0
   -4.0632   -7.7375    0.0000 C   0  0  0  0  0  0  0  0  0  0  0  0
   -5.1239   -8.7981    0.0000 N   0  0  0  0  0  0  0  0  0  0  0  0
   -6.5728   -8.4099    0.0000 C   0  0  0  0  0  0  0  0  0  0  0  0
   -4.7357  -10.2470    0.0000 C   0  0  0  0  0  0  0  0  0  0  0  0
   -4.4515   -6.2886    0.0000 C   0  0  0  0  0  0  0  0  0  0  0  0
   -5.9004   -5.9004    0.0000 O   0  0  0  0  0  0  0  0  0  0  0  0
   -3.5517   -1.4712    0.0000 C   0  0  0  0  0  0  0  0  0  0  0  0
   -4.9376   -2.0452    0.0000 C   0  0  0  0  0  0  0  0  0  0  0  0
   -6.1276   -1.1321    0.0000 O   0  0  0  0  0  0  0  0  0  0  0  0
   -3.8444    0.0000    0.0000 C   0  0  0  0  0  0  0  0  0  0  0  0
   -3.5517    1.4712    0.0000 C   0  0  0  0  0  0  0  0  0  0  0  0
   -4.9376    2.0452    0.0000 C   0  0  0  0  0  0  0  0  0  0  0  0
   -2.7184    2.7184    0.0000 C   0  0  0  0  0  0  0  0  0  0  0  0
   -3.7790    3.7790    0.0000 O   0  0  0  0  0  0  0  0  0  0  0  0
   -1.4712    3.5517    0.0000 C   0  0  0  0  0  0  0  0  0  0  0  0
    0.0000    3.8444    0.0000 C   0  0  0  0  0  0  0  0  0  0  0  0
    1.4712    3.5517    0.0000 C   0  0  0  0  0  0  0  0  0  0  0  0
    2.0452    4.9376    0.0000 C   0  0  0  0  0  0  0  0  0  0  0  0
    2.7184    2.7184    0.0000 C   0  0  0  0  0  0  0  0  0  0  0  0
    3.5517    1.4712    0.0000 C   0  0  0  0  0  0  0  0  0  0  0  0
    4.9376    2.0452    0.0000 C   0  0  0  0  0  0  0  0  0  0  0  0
    6.1276    1.1321    0.0000 O   0  0  0  0  0  0  0  0  0  0  0  0
    7.5134    1.7061    0.0000 C   0  0  0  0  0  0  0  0  0  0  0  0
    8.7034    0.7929    0.0000 O   0  0  0  0  0  0  0  0  0  0  0  0
   10.0893    1.3670    0.0000 C   0  0  0  0  0  0  0  0  0  0  0  0
   11.2793    0.4538    0.0000 C   0  0  0  0  0  0  0  0  0  0  0  0
   10.2850    2.8541    0.0000 C   0  0  0  0  0  0  0  0  0  0  0  0
   11.6709    3.4282    0.0000 O   0  0  0  0  0  0  0  0  0  0  0  0
    9.0950    3.7673    0.0000 C   0  0  0  0  0  0  0  0  0  0  0  0
    9.2908    5.2544    0.0000 O   0  0  0  0  0  0  0  0  0  0  0  0
    8.1008    6.1676    0.0000 C   0  0  0  0  0  0  0  0  0  0  0  0
    7.7092    3.1933    0.0000 C   0  0  0  0  0  0  0  0  0  0  0  0
    6.5192    4.1064    0.0000 O   0  0  0  0  0  0  0  0  0  0  0  0
    6.7150    5.5936    0.0000 C   0  0  0  0  0  0  0  0  0  0  0  0
  1  2  1  0
  2  3  1  0
  3  4  1  0
  4  5  1  0
  5  6  2  0
  5  7  1  0
  7  8  1  0
  8  9  1  0
  8 10  1  0
 10 11  1  0
 10 12  1  0
 12 13  1  0
 13 14  1  0
 14 15  1  0
 15 16  1  0
 16 17  1  0
 16 18  1  0
 18 19  1  0
 18 20  1  0
 20 21  1  0
 21 22  1  0
 21 23  1  0
 20 24  1  0
 24 25  1  0
 12 26  1  0
 26 27  1  0
 27 28  2  0
 26 29  1  0
 29 30  1  0
 30 31  1  0
 30 32  1  0
 32 33  2  0
 32 34  1  0
 34 35  2  0
 35 36  1  0
 36 37  1  0
 36 38  2  0
 38 39  1  0
 39 40  1  0
 40 41  1  0
 41 42  1  0
 42 43  1  0
 43 44  1  0
 44 45  1  0
 44 46  1  0
 46 47  1  0
 46 48  1  0
 48 49  1  0
 49 50  1  0
 48 51  1  0
 51 52  1  0
 52 53  1  0
 39  3  1  0
 51 42  1  0
 24 14  1  0
M  END
>  <ChEMBL_IDs>  (276) 
nan

>  <target_organism>  (276) 
nan

>  <target_molecule_pref_name>  (276) 
nan

>  <# Known Targets>  (276) 
nan

>  <Known Targets>  (276) 
nan

>  <smiles>  (276) 
CCC1OC(=O)CC(O)C(C)C(OC2OC(C)C(O)C(N(C)C)C2O)C(C=O)CC(C)C(=O)/C=C\C(C)=C/C1COC1OC(C)C(O)C(OC)C1OC

$$$$

     RDKit          2D

 54 56  0  0  0  0  0  0  0  0999 V2000
    6.0944   -3.8971    0.0000 C   0  0  0  0  0  0  0  0  0  0  0  0
    5.3444   -2.5981    0.0000 C   0  0  0  0  0  0  0  0  0  0  0  0
    6.0944   -1.2990    0.0000 C   0  0  0  0  0  0  0  0  0  0  0  0
    7.5944   -1.2990    0.0000 O   0  0  0  0  0  0  0  0  0  0  0  0
    5.3444   -0.0000    0.0000 O   0  0  0  0  0  0  0  0  0  0  0  0
    3.8444    0.0000    0.0000 C   0  0  0  0  0  0  0  0  0  0  0  0
    3.5517   -1.4712    0.0000 C   0  0  0  0  0  0  0  0  0  0  0  0
    2.7184   -2.7184    0.0000 C   0  0  0  0  0  0  0  0  0  0  0  0
    3.7790   -3.7790    0.0000 O   0  0  0  0  0  0  0  0  0  0  0  0
    1.4712   -3.5517    0.0000 O   0  0  0  0  0  0  0  0  0  0  0  0
   -0.0000   -3.8444    0.0000 C   0  0  0  0  0  0  0  0  0  0  0  0
   -0.0000   -5.3444    0.0000 C   0  0  0  0  0  0  0  0  0  0  0  0
   -1.4712   -3.5517    0.0000 C   0  0  0  0  0  0  0  0  0  0  0  0
   -2.0452   -4.9376    0.0000 O   0  0  0  0  0  0  0  0  0  0  0  0
   -2.7184   -2.7184    0.0000 C   0  0  0  0  0  0  0  0  0  0  0  0
   -3.5517   -1.4712    0.0000 C   0  0  0  0  0  0  0  0  0  0  0  0
   -3.8444    0.0000    0.0000 C   0  0  0  0  0  0  0  0  0  0  0  0
   -3.5517    1.4712    0.0000 C   0  0  0  0  0  0  0  0  0  0  0  0
   -2.7184    2.7184    0.0000 C   0  0  0  0  0  0  0  0  0  0  0  0
   -3.7790    3.7790    0.0000 O   0  0  0  0  0  0  0  0  0  0  0  0
   -1.4712    3.5517    0.0000 C   0  0  0  0  0  0  0  0  0  0  0  0
   -2.0452    4.9376    0.0000 C   0  0  0  0  0  0  0  0  0  0  0  0
    0.0000    3.8444    0.0000 C   0  0  0  0  0  0  0  0  0  0  0  0
    1.4712    3.5517    0.0000 C   0  0  0  0  0  0  0  0  0  0  0  0
    2.0452    4.9376    0.0000 C   0  0  0  0  0  0  0  0  0  0  0  0
    3.5324    5.1333    0.0000 C   0  0  0  0  0  0  0  0  0  0  0  0
    4.1064    6.5192    0.0000 O   0  0  0  0  0  0  0  0  0  0  0  0
    2.7184    2.7184    0.0000 C   0  0  0  0  0  0  0  0  0  0  0  0
    3.7790    3.7790    0.0000 O   0  0  0  0  0  0  0  0  0  0  0  0
    5.2279    3.3908    0.0000 C   0  0  0  0  0  0  0  0  0  0  0  0
    5.6162    1.9419    0.0000 O   0  0  0  0  0  0  0  0  0  0  0  0
    7.0650    1.5537    0.0000 C   0  0  0  0  0  0  0  0  0  0  0  0
    7.4533    0.1048    0.0000 C   0  0  0  0  0  0  0  0  0  0  0  0
    8.1257    2.6144    0.0000 C   0  0  0  0  0  0  0  0  0  0  0  0
    9.5746    2.2261    0.0000 O   0  0  0  0  0  0  0  0  0  0  0  0
    9.9628    0.7772    0.0000 C   0  0  0  0  0  0  0  0  0  0  0  0
   11.4117    0.3890    0.0000 C   0  0  0  0  0  0  0  0  0  0  0  0
   11.7999   -1.0599    0.0000 C   0  0  0  0  0  0  0  0  0  0  0  0
   12.6603   -2.2886    0.0000 C   0  0  0  0  0  0  0  0  0  0  0  0
   13.1594   -0.4260    0.0000 O   0  0  0  0  0  0  0  0  0  0  0  0
   10.7393   -2.1205    0.0000 C   0  0  0  0  0  0  0  0  0  0  0  0
   11.1275   -3.5694    0.0000 O   0  0  0  0  0  0  0  0  0  0  0  0
    9.2904   -1.7323    0.0000 C   0  0  0  0  0  0  0  0  0  0  0  0
    8.2297   -2.7930    0.0000 C   0  0  0  0  0  0  0  0  0  0  0  0
    8.9022   -0.2834    0.0000 O   0  0  0  0  0  0  0  0  0  0  0  0
    7.7375    4.0632    0.0000 C   0  0  0  0  0  0  0  0  0  0  0  0
    8.7981    5.1239    0.0000 N   0  0  0  0  0  0  0  0  0  0  0  0
    8.4099    6.5728    0.0000 C   0  0  0  0  0  0  0  0  0  0  0  0
   10.2470    4.7357    0.0000 C   0  0  0  0  0  0  0  0  0  0  0  0
    6.2886    4.4515    0.0000 C   0  0  0  0  0  0  0  0  0  0  0  0
    5.9004    5.9004    0.0000 O   0  0  0  0  0  0  0  0  0  0  0  0
    3.5517    1.4712    0.0000 C   0  0  0  0  0  0  0  0  0  0  0  0
    4.9376    2.0452    0.0000 O   0  0  0  0  0  0  0  0  0  0  0  0
    6.1276    1.1321    0.0000 C   0  0  0  0  0  0  0  0  0  0  0  0
  1  2  1  0
  2  3  1  0
  3  4  2  0
  3  5  1  0
  5  6  1  0
  6  7  1  0
  7  8  1  0
  8  9  2  0
  8 10  1  0
 10 11  1  0
 11 12  1  0
 11 13  1  0
 13 14  1  0
 13 15  1  0
 15 16  2  0
 16 17  1  0
 17 18  2  0
 18 19  1  0
 19 20  1  0
 19 21  1  0
 21 22  1  0
 21 23  1  0
 23 24  1  0
 24 25  1  0
 25 26  1  0
 26 27  2  0
 24 28  1  0
 28 29  1  0
 29 30  1  0
 30 31  1  0
 31 32  1  0
 32 33  1  0
 32 34  1  0
 34 35  1  0
 35 36  1  0
 36 37  1  0
 37 38  1  0
 38 39  1  0
 38 40  1  0
 38 41  1  0
 41 42  1  0
 41 43  1  0
 43 44  1  0
 43 45  1  0
 34 46  1  0
 46 47  1  0
 47 48  1  0
 47 49  1  0
 46 50  1  0
 50 51  1  0
 28 52  1  0
 52 53  1  0
 53 54  1  0
 52  6  1  0
 50 30  1  0
 45 36  1  0
M  END
>  <ChEMBL_IDs>  (277) 
nan

>  <target_organism>  (277) 
nan

>  <target_molecule_pref_name>  (277) 
nan

>  <# Known Targets>  (277) 
nan

>  <Known Targets>  (277) 
nan

>  <smiles>  (277) 
CCC(=O)OC1CC(=O)OC(C)C(O)/C=C\C=C/C(O)C(C)CC(CC=O)C(OC2OC(C)C(OC3CC(C)(O)C(O)C(C)O3)C(N(C)C)C2O)C1OC

$$$$

     RDKit          2D

 54 56  0  0  0  0  0  0  0  0999 V2000
    6.0944   -3.8971    0.0000 C   0  0  0  0  0  0  0  0  0  0  0  0
    5.3444   -2.5981    0.0000 C   0  0  0  0  0  0  0  0  0  0  0  0
    6.0944   -1.2990    0.0000 C   0  0  0  0  0  0  0  0  0  0  0  0
    7.5944   -1.2990    0.0000 O   0  0  0  0  0  0  0  0  0  0  0  0
    5.3444   -0.0000    0.0000 O   0  0  0  0  0  0  0  0  0  0  0  0
    3.8444    0.0000    0.0000 C   0  0  0  0  0  0  0  0  0  0  0  0
    3.5517   -1.4712    0.0000 C   0  0  0  0  0  0  0  0  0  0  0  0
    2.7184   -2.7184    0.0000 C   0  0  0  0  0  0  0  0  0  0  0  0
    3.7790   -3.7790    0.0000 O   0  0  0  0  0  0  0  0  0  0  0  0
    1.4712   -3.5517    0.0000 O   0  0  0  0  0  0  0  0  0  0  0  0
   -0.0000   -3.8444    0.0000 C   0  0  0  0  0  0  0  0  0  0  0  0
   -0.0000   -5.3444    0.0000 C   0  0  0  0  0  0  0  0  0  0  0  0
   -1.4712   -3.5517    0.0000 C   0  0  0  0  0  0  0  0  0  0  0  0
   -2.0452   -4.9376    0.0000 O   0  0  0  0  0  0  0  0  0  0  0  0
   -2.7184   -2.7184    0.0000 C   0  0  0  0  0  0  0  0  0  0  0  0
   -3.5517   -1.4712    0.0000 C   0  0  0  0  0  0  0  0  0  0  0  0
   -3.8444    0.0000    0.0000 C   0  0  0  0  0  0  0  0  0  0  0  0
   -3.5517    1.4712    0.0000 C   0  0  0  0  0  0  0  0  0  0  0  0
   -2.7184    2.7184    0.0000 C   0  0  0  0  0  0  0  0  0  0  0  0
   -3.7790    3.7790    0.0000 O   0  0  0  0  0  0  0  0  0  0  0  0
   -1.4712    3.5517    0.0000 C   0  0  0  0  0  0  0  0  0  0  0  0
   -2.0452    4.9376    0.0000 C   0  0  0  0  0  0  0  0  0  0  0  0
    0.0000    3.8444    0.0000 C   0  0  0  0  0  0  0  0  0  0  0  0
    1.4712    3.5517    0.0000 C   0  0  0  0  0  0  0  0  0  0  0  0
    2.0452    4.9376    0.0000 C   0  0  0  0  0  0  0  0  0  0  0  0
    3.5324    5.1333    0.0000 C   0  0  0  0  0  0  0  0  0  0  0  0
    1.1321    6.1276    0.0000 O   0  0  0  0  0  0  0  0  0  0  0  0
    2.7184    2.7184    0.0000 C   0  0  0  0  0  0  0  0  0  0  0  0
    3.7790    3.7790    0.0000 O   0  0  0  0  0  0  0  0  0  0  0  0
    5.2279    3.3908    0.0000 C   0  0  0  0  0  0  0  0  0  0  0  0
    5.6162    1.9419    0.0000 O   0  0  0  0  0  0  0  0  0  0  0  0
    7.0650    1.5537    0.0000 C   0  0  0  0  0  0  0  0  0  0  0  0
    7.4533    0.1048    0.0000 C   0  0  0  0  0  0  0  0  0  0  0  0
    8.1257    2.6144    0.0000 C   0  0  0  0  0  0  0  0  0  0  0  0
    9.5746    2.2261    0.0000 O   0  0  0  0  0  0  0  0  0  0  0  0
    9.9628    0.7772    0.0000 C   0  0  0  0  0  0  0  0  0  0  0  0
   11.4117    0.3890    0.0000 C   0  0  0  0  0  0  0  0  0  0  0  0
   11.7999   -1.0599    0.0000 C   0  0  0  0  0  0  0  0  0  0  0  0
   12.6603   -2.2886    0.0000 C   0  0  0  0  0  0  0  0  0  0  0  0
   13.1594   -0.4260    0.0000 O   0  0  0  0  0  0  0  0  0  0  0  0
   10.7393   -2.1205    0.0000 C   0  0  0  0  0  0  0  0  0  0  0  0
   11.1275   -3.5694    0.0000 O   0  0  0  0  0  0  0  0  0  0  0  0
    9.2904   -1.7323    0.0000 C   0  0  0  0  0  0  0  0  0  0  0  0
    8.2297   -2.7930    0.0000 C   0  0  0  0  0  0  0  0  0  0  0  0
    8.9022   -0.2834    0.0000 O   0  0  0  0  0  0  0  0  0  0  0  0
    7.7375    4.0632    0.0000 C   0  0  0  0  0  0  0  0  0  0  0  0
    8.7981    5.1239    0.0000 N   0  0  0  0  0  0  0  0  0  0  0  0
    8.4099    6.5728    0.0000 C   0  0  0  0  0  0  0  0  0  0  0  0
   10.2470    4.7357    0.0000 C   0  0  0  0  0  0  0  0  0  0  0  0
    6.2886    4.4515    0.0000 C   0  0  0  0  0  0  0  0  0  0  0  0
    5.9004    5.9004    0.0000 O   0  0  0  0  0  0  0  0  0  0  0  0
    3.5517    1.4712    0.0000 C   0  0  0  0  0  0  0  0  0  0  0  0
    4.9376    2.0452    0.0000 O   0  0  0  0  0  0  0  0  0  0  0  0
    6.1276    1.1321    0.0000 C   0  0  0  0  0  0  0  0  0  0  0  0
  1  2  1  0
  2  3  1  0
  3  4  2  0
  3  5  1  0
  5  6  1  0
  6  7  1  0
  7  8  1  0
  8  9  2  0
  8 10  1  0
 10 11  1  0
 11 12  1  0
 11 13  1  0
 13 14  1  0
 13 15  1  0
 15 16  2  0
 16 17  1  0
 17 18  2  0
 18 19  1  0
 19 20  1  0
 19 21  1  0
 21 22  1  0
 21 23  1  0
 23 24  1  0
 24 25  1  0
 25 26  1  0
 25 27  2  0
 24 28  1  0
 28 29  1  0
 29 30  1  0
 30 31  1  0
 31 32  1  0
 32 33  1  0
 32 34  1  0
 34 35  1  0
 35 36  1  0
 36 37  1  0
 37 38  1  0
 38 39  1  0
 38 40  1  0
 38 41  1  0
 41 42  1  0
 41 43  1  0
 43 44  1  0
 43 45  1  0
 34 46  1  0
 46 47  1  0
 47 48  1  0
 47 49  1  0
 46 50  1  0
 50 51  1  0
 28 52  1  0
 52 53  1  0
 53 54  1  0
 52  6  1  0
 50 30  1  0
 45 36  1  0
M  END
>  <ChEMBL_IDs>  (278) 
nan

>  <target_organism>  (278) 
nan

>  <target_molecule_pref_name>  (278) 
nan

>  <# Known Targets>  (278) 
nan

>  <Known Targets>  (278) 
nan

>  <smiles>  (278) 
CCC(=O)OC1CC(=O)OC(C)C(O)/C=C\C=C/C(O)C(C)CC(C(C)=O)C(OC2OC(C)C(OC3CC(C)(O)C(O)C(C)O3)C(N(C)C)C2O)C1OC

$$$$

     RDKit          2D

 53 55  0  0  0  0  0  0  0  0999 V2000
    6.0944   -1.2990    0.0000 C   0  0  0  0  0  0  0  0  0  0  0  0
    5.3444    0.0000    0.0000 C   0  0  0  0  0  0  0  0  0  0  0  0
    3.8444    0.0000    0.0000 C   0  0  0  0  0  0  0  0  0  0  0  0
    3.5517   -1.4712    0.0000 O   0  0  0  0  0  0  0  0  0  0  0  0
    2.7184   -2.7184    0.0000 C   0  0  0  0  0  0  0  0  0  0  0  0
    3.7790   -3.7790    0.0000 O   0  0  0  0  0  0  0  0  0  0  0  0
    1.4712   -3.5517    0.0000 C   0  0  0  0  0  0  0  0  0  0  0  0
   -0.0000   -3.8444    0.0000 C   0  0  0  0  0  0  0  0  0  0  0  0
   -0.0000   -5.3444    0.0000 O   0  0  0  0  0  0  0  0  0  0  0  0
   -1.4712   -3.5517    0.0000 C   0  0  0  0  0  0  0  0  0  0  0  0
   -1.6507   -4.7534    0.0000 C   0  0  0  0  0  0  0  0  0  0  0  0
   -2.7184   -2.7184    0.0000 C   0  0  0  0  0  0  0  0  0  0  0  0
   -3.7790   -3.7790    0.0000 O   0  0  0  0  0  0  0  0  0  0  0  0
   -3.3908   -5.2279    0.0000 C   0  0  0  0  0  0  0  0  0  0  0  0
   -1.9419   -5.6162    0.0000 O   0  0  0  0  0  0  0  0  0  0  0  0
   -1.5537   -7.0650    0.0000 C   0  0  0  0  0  0  0  0  0  0  0  0
   -0.1048   -7.4533    0.0000 C   0  0  0  0  0  0  0  0  0  0  0  0
   -2.6144   -8.1257    0.0000 C   0  0  0  0  0  0  0  0  0  0  0  0
   -2.2261   -9.5746    0.0000 O   0  0  0  0  0  0  0  0  0  0  0  0
   -4.0632   -7.7375    0.0000 C   0  0  0  0  0  0  0  0  0  0  0  0
   -5.1239   -8.7981    0.0000 N   0  0  0  0  0  0  0  0  0  0  0  0
   -6.5728   -8.4099    0.0000 C   0  0  0  0  0  0  0  0  0  0  0  0
   -4.7357  -10.2470    0.0000 C   0  0  0  0  0  0  0  0  0  0  0  0
   -4.4515   -6.2886    0.0000 C   0  0  0  0  0  0  0  0  0  0  0  0
   -5.9004   -5.9004    0.0000 O   0  0  0  0  0  0  0  0  0  0  0  0
   -3.5517   -1.4712    0.0000 C   0  0  0  0  0  0  0  0  0  0  0  0
   -4.9376   -2.0452    0.0000 C   0  0  0  0  0  0  0  0  0  0  0  0
   -6.1276   -1.1321    0.0000 C   0  0  0  0  0  0  0  0  0  0  0  0
   -7.5134   -1.7061    0.0000 I   0  0  0  0  0  0  0  0  0  0  0  0
   -3.8444    0.0000    0.0000 C   0  0  0  0  0  0  0  0  0  0  0  0
   -3.5517    1.4712    0.0000 C   0  0  0  0  0  0  0  0  0  0  0  0
   -4.9376    2.0452    0.0000 C   0  0  0  0  0  0  0  0  0  0  0  0
   -2.7184    2.7184    0.0000 C   0  0  0  0  0  0  0  0  0  0  0  0
   -3.7790    3.7790    0.0000 O   0  0  0  0  0  0  0  0  0  0  0  0
   -1.4712    3.5517    0.0000 C   0  0  0  0  0  0  0  0  0  0  0  0
    0.0000    3.8444    0.0000 C   0  0  0  0  0  0  0  0  0  0  0  0
    1.4712    3.5517    0.0000 C   0  0  0  0  0  0  0  0  0  0  0  0
    2.0452    4.9376    0.0000 C   0  0  0  0  0  0  0  0  0  0  0  0
    2.7184    2.7184    0.0000 C   0  0  0  0  0  0  0  0  0  0  0  0
    3.5517    1.4712    0.0000 C   0  0  0  0  0  0  0  0  0  0  0  0
    4.9376    2.0452    0.0000 C   0  0  0  0  0  0  0  0  0  0  0  0
    6.1276    1.1321    0.0000 O   0  0  0  0  0  0  0  0  0  0  0  0
    7.5134    1.7061    0.0000 C   0  0  0  0  0  0  0  0  0  0  0  0
    8.7034    0.7929    0.0000 O   0  0  0  0  0  0  0  0  0  0  0  0
   10.0893    1.3670    0.0000 C   0  0  0  0  0  0  0  0  0  0  0  0
   11.2793    0.4538    0.0000 C   0  0  0  0  0  0  0  0  0  0  0  0
   10.2850    2.8541    0.0000 C   0  0  0  0  0  0  0  0  0  0  0  0
   11.6709    3.4282    0.0000 O   0  0  0  0  0  0  0  0  0  0  0  0
    9.0950    3.7673    0.0000 C   0  0  0  0  0  0  0  0  0  0  0  0
    9.2908    5.2544    0.0000 O   0  0  0  0  0  0  0  0  0  0  0  0
    7.7092    3.1933    0.0000 C   0  0  0  0  0  0  0  0  0  0  0  0
    6.5192    4.1064    0.0000 O   0  0  0  0  0  0  0  0  0  0  0  0
    6.7150    5.5936    0.0000 C   0  0  0  0  0  0  0  0  0  0  0  0
  1  2  1  0
  3  2  1  1
  3  4  1  0
  4  5  1  0
  5  6  2  0
  5  7  1  0
  7  8  1  0
  8  9  1  1
  8 10  1  0
 10 11  1  6
 10 12  1  0
 12 13  1  1
 14 13  1  6
 14 15  1  0
 15 16  1  0
 16 17  1  6
 16 18  1  0
 18 19  1  1
 18 20  1  0
 20 21  1  6
 21 22  1  0
 21 23  1  0
 20 24  1  0
 24 25  1  1
 12 26  1  0
 26 27  1  1
 27 28  1  0
 28 29  1  0
 26 30  1  0
 30 31  1  0
 31 32  1  1
 31 33  1  0
 33 34  2  0
 33 35  1  0
 35 36  2  0
 36 37  1  0
 37 38  1  0
 37 39  2  0
 39 40  1  0
 40 41  1  6
 41 42  1  0
 43 42  1  1
 43 44  1  0
 44 45  1  0
 45 46  1  1
 45 47  1  0
 47 48  1  6
 47 49  1  0
 49 50  1  6
 49 51  1  0
 51 52  1  6
 52 53  1  0
 40  3  1  0
 51 43  1  0
 24 14  1  0
M  END
>  <ChEMBL_IDs>  (279) 
CHEMBL418260

>  <target_organism>  (279) 
Rattus norvegicus

>  <target_molecule_pref_name>  (279) 
nan

>  <# Known Targets>  (279) 
nan

>  <Known Targets>  (279) 
nan

>  <smiles>  (279) 
CC[C@H]1OC(=O)C[C@@H](O)[C@H](C)[C@@H](O[C@@H]2O[C@H](C)[C@@H](O)[C@H](N(C)C)[C@H]2O)[C@@H](CCI)C[C@@H](C)C(=O)/C=C/C(C)=C/[C@@H]1CO[C@@H]1O[C@H](C)[C@@H](O)[C@@H](O)[C@H]1OC

$$$$

     RDKit          2D

 50 52  0  0  0  0  0  0  0  0999 V2000
    6.0944   -1.2990    0.0000 C   0  0  0  0  0  0  0  0  0  0  0  0
    5.3444    0.0000    0.0000 C   0  0  0  0  0  0  0  0  0  0  0  0
    3.8444    0.0000    0.0000 C   0  0  0  0  0  0  0  0  0  0  0  0
    3.5517   -1.4712    0.0000 C   0  0  0  0  0  0  0  0  0  0  0  0
    2.7184   -2.7184    0.0000 C   0  0  0  0  0  0  0  0  0  0  0  0
    3.7790   -3.7790    0.0000 C   0  0  0  0  0  0  0  0  0  0  0  0
    1.4712   -3.5517    0.0000 C   0  0  0  0  0  0  0  0  0  0  0  0
    2.0452   -4.9376    0.0000 O   0  0  0  0  0  0  0  0  0  0  0  0
   -0.0000   -3.8444    0.0000 C   0  0  0  0  0  0  0  0  0  0  0  0
   -1.4712   -3.5517    0.0000 C   0  0  0  0  0  0  0  0  0  0  0  0
   -2.7184   -2.7184    0.0000 C   0  0  0  0  0  0  0  0  0  0  0  0
   -3.7790   -3.7790    0.0000 C   0  0  0  0  0  0  0  0  0  0  0  0
   -3.5517   -1.4712    0.0000 C   0  0  0  0  0  0  0  0  0  0  0  0
   -3.8444    0.0000    0.0000 C   0  0  0  0  0  0  0  0  0  0  0  0
   -5.3444    0.0000    0.0000 C   0  0  0  0  0  0  0  0  0  0  0  0
   -3.5517    1.4712    0.0000 C   0  0  0  0  0  0  0  0  0  0  0  0
   -4.9376    2.0452    0.0000 C   0  0  0  0  0  0  0  0  0  0  0  0
   -5.1333    3.5324    0.0000 C   0  0  0  0  0  0  0  0  0  0  0  0
   -2.7184    2.7184    0.0000 O   0  0  0  0  0  0  0  0  0  0  0  0
   -1.4712    3.5517    0.0000 C   0  0  0  0  0  0  0  0  0  0  0  0
   -2.0452    4.9376    0.0000 O   0  0  0  0  0  0  0  0  0  0  0  0
    0.0000    3.8444    0.0000 C   0  0  0  0  0  0  0  0  0  0  0  0
    1.4712    3.5517    0.0000 C   0  0  0  0  0  0  0  0  0  0  0  0
    2.0452    4.9376    0.0000 O   0  0  0  0  0  0  0  0  0  0  0  0
    2.7184    2.7184    0.0000 C   0  0  0  0  0  0  0  0  0  0  0  0
    3.3441    3.7599    0.0000 C   0  0  0  0  0  0  0  0  0  0  0  0
    3.5517    1.4712    0.0000 C   0  0  0  0  0  0  0  0  0  0  0  0
    4.9376    2.0452    0.0000 O   0  0  0  0  0  0  0  0  0  0  0  0
    5.1333    3.5324    0.0000 C   0  0  0  0  0  0  0  0  0  0  0  0
    3.9433    4.4455    0.0000 O   0  0  0  0  0  0  0  0  0  0  0  0
    4.1391    5.9327    0.0000 C   0  0  0  0  0  0  0  0  0  0  0  0
    2.9491    6.8458    0.0000 C   0  0  0  0  0  0  0  0  0  0  0  0
    5.5249    6.5067    0.0000 C   0  0  0  0  0  0  0  0  0  0  0  0
    5.7207    7.9939    0.0000 O   0  0  0  0  0  0  0  0  0  0  0  0
    7.1065    8.5679    0.0000 C   0  0  0  0  0  0  0  0  0  0  0  0
    7.3023   10.0551    0.0000 C   0  0  0  0  0  0  0  0  0  0  0  0
    8.6881   10.6291    0.0000 C   0  0  0  0  0  0  0  0  0  0  0  0
    9.7941   11.6425    0.0000 C   0  0  0  0  0  0  0  0  0  0  0  0
    7.8822   11.8942    0.0000 O   0  0  0  0  0  0  0  0  0  0  0  0
    9.8782    9.7159    0.0000 C   0  0  0  0  0  0  0  0  0  0  0  0
   11.2640   10.2900    0.0000 O   0  0  0  0  0  0  0  0  0  0  0  0
    9.6824    8.2288    0.0000 C   0  0  0  0  0  0  0  0  0  0  0  0
   10.8724    7.3156    0.0000 C   0  0  0  0  0  0  0  0  0  0  0  0
    8.2966    7.6548    0.0000 O   0  0  0  0  0  0  0  0  0  0  0  0
    6.7150    5.5936    0.0000 C   0  0  0  0  0  0  0  0  0  0  0  0
    8.1008    6.1676    0.0000 N   0  0  0  0  0  0  0  0  0  0  0  0
    9.2908    5.2544    0.0000 C   0  0  0  0  0  0  0  0  0  0  0  0
    8.3930    6.9093    0.0000 C   0  0  0  0  0  0  0  0  0  0  0  0
    6.5192    4.1064    0.0000 C   0  0  0  0  0  0  0  0  0  0  0  0
    7.7092    3.1933    0.0000 O   0  0  0  0  0  0  0  0  0  0  0  0
  1  2  1  0
  3  2  1  1
  3  4  1  0
  4  5  1  0
  5  6  1  1
  5  7  1  0
  7  8  2  0
  7  9  1  0
  9 10  2  0
 10 11  1  0
 11 12  1  0
 11 13  2  0
 13 14  1  0
 14 15  1  6
 14 16  1  0
 16 17  1  1
 17 18  1  0
 16 19  1  0
 19 20  1  0
 20 21  2  0
 20 22  1  0
 22 23  1  0
 23 24  1  1
 23 25  1  0
 25 26  1  6
 25 27  1  0
 27 28  1  1
 29 28  1  6
 29 30  1  0
 30 31  1  0
 31 32  1  6
 31 33  1  0
 33 34  1  1
 35 34  1  1
 35 36  1  0
 36 37  1  0
 37 38  1  6
 37 39  1  0
 37 40  1  0
 40 41  1  1
 40 42  1  0
 42 43  1  6
 42 44  1  0
 33 45  1  0
 45 46  1  6
 46 47  1  0
 46 48  1  0
 45 49  1  0
 49 50  1  1
 27  3  1  0
 49 29  1  0
 44 35  1  0
M  END
>  <ChEMBL_IDs>  (280) 
CHEMBL295992

>  <target_organism>  (280) 
None

>  <target_molecule_pref_name>  (280) 
nan

>  <# Known Targets>  (280) 
nan

>  <Known Targets>  (280) 
nan

>  <smiles>  (280) 
CC[C@H]1C[C@@H](C)C(=O)/C=C/C(C)=C/[C@H](C)[C@@H](CC)OC(=O)C[C@@H](O)[C@H](C)[C@H]1O[C@@H]1O[C@H](C)[C@@H](O[C@H]2C[C@@](C)(O)[C@@H](O)[C@H](C)O2)[C@H](N(C)C)[C@H]1O

$$$$

     RDKit          2D

 51 53  0  0  0  0  0  0  0  0999 V2000
    6.0944   -1.2990    0.0000 C   0  0  0  0  0  0  0  0  0  0  0  0
    5.3444    0.0000    0.0000 C   0  0  0  0  0  0  0  0  0  0  0  0
    3.8444    0.0000    0.0000 C   0  0  0  0  0  0  0  0  0  0  0  0
    3.5517   -1.4712    0.0000 C   0  0  0  0  0  0  0  0  0  0  0  0
    2.7184   -2.7184    0.0000 C   0  0  0  0  0  0  0  0  0  0  0  0
    3.7790   -3.7790    0.0000 C   0  0  0  0  0  0  0  0  0  0  0  0
    1.4712   -3.5517    0.0000 C   0  0  0  0  0  0  0  0  0  0  0  0
    2.0452   -4.9376    0.0000 O   0  0  0  0  0  0  0  0  0  0  0  0
   -0.0000   -3.8444    0.0000 C   0  0  0  0  0  0  0  0  0  0  0  0
   -1.4712   -3.5517    0.0000 C   0  0  0  0  0  0  0  0  0  0  0  0
   -2.7184   -2.7184    0.0000 C   0  0  0  0  0  0  0  0  0  0  0  0
   -3.7790   -3.7790    0.0000 C   0  0  0  0  0  0  0  0  0  0  0  0
   -3.5517   -1.4712    0.0000 C   0  0  0  0  0  0  0  0  0  0  0  0
   -3.8444    0.0000    0.0000 C   0  0  0  0  0  0  0  0  0  0  0  0
   -5.3444    0.0000    0.0000 C   0  0  0  0  0  0  0  0  0  0  0  0
   -6.0944    1.2990    0.0000 O   0  0  0  0  0  0  0  0  0  0  0  0
   -3.5517    1.4712    0.0000 C   0  0  0  0  0  0  0  0  0  0  0  0
   -4.9376    2.0452    0.0000 C   0  0  0  0  0  0  0  0  0  0  0  0
   -5.1333    3.5324    0.0000 C   0  0  0  0  0  0  0  0  0  0  0  0
   -2.7184    2.7184    0.0000 O   0  0  0  0  0  0  0  0  0  0  0  0
   -1.4712    3.5517    0.0000 C   0  0  0  0  0  0  0  0  0  0  0  0
   -2.0452    4.9376    0.0000 O   0  0  0  0  0  0  0  0  0  0  0  0
    0.0000    3.8444    0.0000 C   0  0  0  0  0  0  0  0  0  0  0  0
    1.4712    3.5517    0.0000 C   0  0  0  0  0  0  0  0  0  0  0  0
    2.0452    4.9376    0.0000 O   0  0  0  0  0  0  0  0  0  0  0  0
    2.7184    2.7184    0.0000 C   0  0  0  0  0  0  0  0  0  0  0  0
    3.3441    3.7599    0.0000 C   0  0  0  0  0  0  0  0  0  0  0  0
    3.5517    1.4712    0.0000 C   0  0  0  0  0  0  0  0  0  0  0  0
    4.9376    2.0452    0.0000 O   0  0  0  0  0  0  0  0  0  0  0  0
    5.1333    3.5324    0.0000 C   0  0  0  0  0  0  0  0  0  0  0  0
    3.9433    4.4455    0.0000 O   0  0  0  0  0  0  0  0  0  0  0  0
    4.1391    5.9327    0.0000 C   0  0  0  0  0  0  0  0  0  0  0  0
    2.9491    6.8458    0.0000 C   0  0  0  0  0  0  0  0  0  0  0  0
    5.5249    6.5067    0.0000 C   0  0  0  0  0  0  0  0  0  0  0  0
    5.7207    7.9939    0.0000 O   0  0  0  0  0  0  0  0  0  0  0  0
    7.1065    8.5679    0.0000 C   0  0  0  0  0  0  0  0  0  0  0  0
    7.3023   10.0551    0.0000 C   0  0  0  0  0  0  0  0  0  0  0  0
    8.6881   10.6291    0.0000 C   0  0  0  0  0  0  0  0  0  0  0  0
    9.7941   11.6425    0.0000 C   0  0  0  0  0  0  0  0  0  0  0  0
    7.8822   11.8942    0.0000 O   0  0  0  0  0  0  0  0  0  0  0  0
    9.8782    9.7159    0.0000 C   0  0  0  0  0  0  0  0  0  0  0  0
   11.2640   10.2900    0.0000 O   0  0  0  0  0  0  0  0  0  0  0  0
    9.6824    8.2288    0.0000 C   0  0  0  0  0  0  0  0  0  0  0  0
   10.8724    7.3156    0.0000 C   0  0  0  0  0  0  0  0  0  0  0  0
    8.2966    7.6548    0.0000 O   0  0  0  0  0  0  0  0  0  0  0  0
    6.7150    5.5936    0.0000 C   0  0  0  0  0  0  0  0  0  0  0  0
    8.1008    6.1676    0.0000 N   0  0  0  0  0  0  0  0  0  0  0  0
    9.2908    5.2544    0.0000 C   0  0  0  0  0  0  0  0  0  0  0  0
    8.3930    6.9093    0.0000 C   0  0  0  0  0  0  0  0  0  0  0  0
    6.5192    4.1064    0.0000 C   0  0  0  0  0  0  0  0  0  0  0  0
    7.7092    3.1933    0.0000 O   0  0  0  0  0  0  0  0  0  0  0  0
  1  2  1  0
  3  2  1  1
  3  4  1  0
  4  5  1  0
  5  6  1  1
  5  7  1  0
  7  8  2  0
  7  9  1  0
  9 10  2  0
 10 11  1  0
 11 12  1  0
 11 13  2  0
 13 14  1  0
 14 15  1  6
 15 16  1  0
 14 17  1  0
 17 18  1  1
 18 19  1  0
 17 20  1  0
 20 21  1  0
 21 22  2  0
 21 23  1  0
 23 24  1  0
 24 25  1  1
 24 26  1  0
 26 27  1  6
 26 28  1  0
 28 29  1  1
 30 29  1  6
 30 31  1  0
 31 32  1  0
 32 33  1  6
 32 34  1  0
 34 35  1  1
 36 35  1  1
 36 37  1  0
 37 38  1  0
 38 39  1  6
 38 40  1  0
 38 41  1  0
 41 42  1  1
 41 43  1  0
 43 44  1  6
 43 45  1  0
 34 46  1  0
 46 47  1  6
 47 48  1  0
 47 49  1  0
 46 50  1  0
 50 51  1  1
 28  3  1  0
 50 30  1  0
 45 36  1  0
M  END
>  <ChEMBL_IDs>  (281) 
CHEMBL43382

>  <target_organism>  (281) 
Rattus norvegicus

>  <target_molecule_pref_name>  (281) 
nan

>  <# Known Targets>  (281) 
nan

>  <Known Targets>  (281) 
nan

>  <smiles>  (281) 
CC[C@H]1C[C@@H](C)C(=O)/C=C/C(C)=C/[C@H](CO)[C@@H](CC)OC(=O)C[C@@H](O)[C@H](C)[C@H]1O[C@@H]1O[C@H](C)[C@@H](O[C@H]2C[C@@](C)(O)[C@@H](O)[C@H](C)O2)[C@H](N(C)C)[C@H]1O

$$$$

     RDKit          2D

 51 53  0  0  0  0  0  0  0  0999 V2000
    6.0944   -1.2990    0.0000 C   0  0  0  0  0  0  0  0  0  0  0  0
    5.3444    0.0000    0.0000 C   0  0  0  0  0  0  0  0  0  0  0  0
    3.8444    0.0000    0.0000 C   0  0  0  0  0  0  0  0  0  0  0  0
    3.5517   -1.4712    0.0000 O   0  0  0  0  0  0  0  0  0  0  0  0
    2.7184   -2.7184    0.0000 C   0  0  0  0  0  0  0  0  0  0  0  0
    3.7790   -3.7790    0.0000 O   0  0  0  0  0  0  0  0  0  0  0  0
    1.4712   -3.5517    0.0000 C   0  0  0  0  0  0  0  0  0  0  0  0
   -0.0000   -3.8444    0.0000 C   0  0  0  0  0  0  0  0  0  0  0  0
   -0.0000   -5.3444    0.0000 O   0  0  0  0  0  0  0  0  0  0  0  0
   -1.4712   -3.5517    0.0000 C   0  0  0  0  0  0  0  0  0  0  0  0
   -1.6507   -4.7534    0.0000 C   0  0  0  0  0  0  0  0  0  0  0  0
   -2.7184   -2.7184    0.0000 C   0  0  0  0  0  0  0  0  0  0  0  0
   -3.7790   -3.7790    0.0000 O   0  0  0  0  0  0  0  0  0  0  0  0
   -3.3908   -5.2279    0.0000 C   0  0  0  0  0  0  0  0  0  0  0  0
   -1.9419   -5.6162    0.0000 O   0  0  0  0  0  0  0  0  0  0  0  0
   -1.5537   -7.0650    0.0000 C   0  0  0  0  0  0  0  0  0  0  0  0
   -0.1048   -7.4533    0.0000 C   0  0  0  0  0  0  0  0  0  0  0  0
   -2.6144   -8.1257    0.0000 C   0  0  0  0  0  0  0  0  0  0  0  0
   -2.2261   -9.5746    0.0000 O   0  0  0  0  0  0  0  0  0  0  0  0
   -0.7772   -9.9628    0.0000 C   0  0  0  0  0  0  0  0  0  0  0  0
   -0.3890  -11.4117    0.0000 C   0  0  0  0  0  0  0  0  0  0  0  0
    1.0599  -11.7999    0.0000 C   0  0  0  0  0  0  0  0  0  0  0  0
    2.2886  -12.6603    0.0000 C   0  0  0  0  0  0  0  0  0  0  0  0
    0.4260  -13.1594    0.0000 O   0  0  0  0  0  0  0  0  0  0  0  0
    2.1205  -10.7393    0.0000 C   0  0  0  0  0  0  0  0  0  0  0  0
    3.5694  -11.1275    0.0000 O   0  0  0  0  0  0  0  0  0  0  0  0
    1.7323   -9.2904    0.0000 C   0  0  0  0  0  0  0  0  0  0  0  0
    2.7930   -8.2297    0.0000 C   0  0  0  0  0  0  0  0  0  0  0  0
    0.2834   -8.9022    0.0000 O   0  0  0  0  0  0  0  0  0  0  0  0
   -4.0632   -7.7375    0.0000 C   0  0  0  0  0  0  0  0  0  0  0  0
   -5.1239   -8.7981    0.0000 N   0  0  0  0  0  0  0  0  0  0  0  0
   -6.5728   -8.4099    0.0000 C   0  0  0  0  0  0  0  0  0  0  0  0
   -4.7357  -10.2470    0.0000 C   0  0  0  0  0  0  0  0  0  0  0  0
   -4.4515   -6.2886    0.0000 C   0  0  0  0  0  0  0  0  0  0  0  0
   -5.9004   -5.9004    0.0000 O   0  0  0  0  0  0  0  0  0  0  0  0
   -3.5517   -1.4712    0.0000 C   0  0  0  0  0  0  0  0  0  0  0  0
   -4.9376   -2.0452    0.0000 C   0  0  0  0  0  0  0  0  0  0  0  0
   -6.1276   -1.1321    0.0000 C   0  0  0  0  0  0  0  0  0  0  0  0
   -7.5134   -1.7061    0.0000 O   0  0  0  0  0  0  0  0  0  0  0  0
   -3.8444    0.0000    0.0000 C   0  0  0  0  0  0  0  0  0  0  0  0
   -3.5517    1.4712    0.0000 C   0  0  0  0  0  0  0  0  0  0  0  0
   -4.9376    2.0452    0.0000 C   0  0  0  0  0  0  0  0  0  0  0  0
   -2.7184    2.7184    0.0000 C   0  0  0  0  0  0  0  0  0  0  0  0
   -3.7790    3.7790    0.0000 O   0  0  0  0  0  0  0  0  0  0  0  0
   -1.4712    3.5517    0.0000 C   0  0  0  0  0  0  0  0  0  0  0  0
    0.0000    3.8444    0.0000 C   0  0  0  0  0  0  0  0  0  0  0  0
    1.4712    3.5517    0.0000 C   0  0  0  0  0  0  0  0  0  0  0  0
    2.0452    4.9376    0.0000 C   0  0  0  0  0  0  0  0  0  0  0  0
    2.7184    2.7184    0.0000 C   0  0  0  0  0  0  0  0  0  0  0  0
    3.5517    1.4712    0.0000 C   0  0  0  0  0  0  0  0  0  0  0  0
    4.9376    2.0452    0.0000 C   0  0  0  0  0  0  0  0  0  0  0  0
  1  2  1  0
  3  2  1  1
  3  4  1  0
  4  5  1  0
  5  6  2  0
  5  7  1  0
  7  8  1  0
  8  9  1  1
  8 10  1  0
 10 11  1  6
 10 12  1  0
 12 13  1  1
 14 13  1  6
 14 15  1  0
 15 16  1  0
 16 17  1  6
 16 18  1  0
 18 19  1  1
 20 19  1  6
 20 21  1  0
 21 22  1  0
 22 23  1  1
 22 24  1  0
 22 25  1  0
 25 26  1  6
 25 27  1  0
 27 28  1  1
 27 29  1  0
 18 30  1  0
 30 31  1  6
 31 32  1  0
 31 33  1  0
 30 34  1  0
 34 35  1  1
 12 36  1  0
 36 37  1  1
 37 38  1  0
 38 39  1  0
 36 40  1  0
 40 41  1  0
 41 42  1  1
 41 43  1  0
 43 44  2  0
 43 45  1  0
 45 46  2  0
 46 47  1  0
 47 48  1  0
 47 49  2  0
 49 50  1  0
 50 51  1  6
 50  3  1  0
 34 14  1  0
 29 20  1  0
M  END
>  <ChEMBL_IDs>  (282) 
CHEMBL296502

>  <target_organism>  (282) 
None

>  <target_molecule_pref_name>  (282) 
nan

>  <# Known Targets>  (282) 
nan

>  <Known Targets>  (282) 
nan

>  <smiles>  (282) 
CC[C@H]1OC(=O)C[C@@H](O)[C@H](C)[C@@H](O[C@@H]2O[C@H](C)[C@@H](O[C@H]3C[C@@](C)(O)[C@@H](O)[C@H](C)O3)[C@H](N(C)C)[C@H]2O)[C@@H](CCO)C[C@@H](C)C(=O)/C=C/C(C)=C/[C@@H]1C

$$$$

     RDKit          2D

 51 53  0  0  0  0  0  0  0  0999 V2000
    6.0944   -1.2990    0.0000 C   0  0  0  0  0  0  0  0  0  0  0  0
    5.3444    0.0000    0.0000 C   0  0  0  0  0  0  0  0  0  0  0  0
    3.8444    0.0000    0.0000 C   0  0  0  0  0  0  0  0  0  0  0  0
    3.5517   -1.4712    0.0000 O   0  0  0  0  0  0  0  0  0  0  0  0
    2.7184   -2.7184    0.0000 C   0  0  0  0  0  0  0  0  0  0  0  0
    3.7790   -3.7790    0.0000 O   0  0  0  0  0  0  0  0  0  0  0  0
    1.4712   -3.5517    0.0000 C   0  0  0  0  0  0  0  0  0  0  0  0
   -0.0000   -3.8444    0.0000 C   0  0  0  0  0  0  0  0  0  0  0  0
   -0.0000   -5.3444    0.0000 O   0  0  0  0  0  0  0  0  0  0  0  0
   -1.4712   -3.5517    0.0000 C   0  0  0  0  0  0  0  0  0  0  0  0
   -1.6507   -4.7534    0.0000 C   0  0  0  0  0  0  0  0  0  0  0  0
   -2.7184   -2.7184    0.0000 C   0  0  0  0  0  0  0  0  0  0  0  0
   -3.7790   -3.7790    0.0000 O   0  0  0  0  0  0  0  0  0  0  0  0
   -3.3908   -5.2279    0.0000 C   0  0  0  0  0  0  0  0  0  0  0  0
   -1.9419   -5.6162    0.0000 O   0  0  0  0  0  0  0  0  0  0  0  0
   -1.5537   -7.0650    0.0000 C   0  0  0  0  0  0  0  0  0  0  0  0
   -0.1048   -7.4533    0.0000 C   0  0  0  0  0  0  0  0  0  0  0  0
   -2.6144   -8.1257    0.0000 C   0  0  0  0  0  0  0  0  0  0  0  0
   -2.2261   -9.5746    0.0000 O   0  0  0  0  0  0  0  0  0  0  0  0
   -0.7772   -9.9628    0.0000 C   0  0  0  0  0  0  0  0  0  0  0  0
   -0.3890  -11.4117    0.0000 C   0  0  0  0  0  0  0  0  0  0  0  0
    1.0599  -11.7999    0.0000 C   0  0  0  0  0  0  0  0  0  0  0  0
    2.2886  -12.6603    0.0000 C   0  0  0  0  0  0  0  0  0  0  0  0
    0.4260  -13.1594    0.0000 O   0  0  0  0  0  0  0  0  0  0  0  0
    2.1205  -10.7393    0.0000 C   0  0  0  0  0  0  0  0  0  0  0  0
    3.5694  -11.1275    0.0000 O   0  0  0  0  0  0  0  0  0  0  0  0
    1.7323   -9.2904    0.0000 C   0  0  0  0  0  0  0  0  0  0  0  0
    2.7930   -8.2297    0.0000 C   0  0  0  0  0  0  0  0  0  0  0  0
    0.2834   -8.9022    0.0000 O   0  0  0  0  0  0  0  0  0  0  0  0
   -4.0632   -7.7375    0.0000 C   0  0  0  0  0  0  0  0  0  0  0  0
   -5.1239   -8.7981    0.0000 N   0  0  0  0  0  0  0  0  0  0  0  0
   -6.5728   -8.4099    0.0000 C   0  0  0  0  0  0  0  0  0  0  0  0
   -4.7357  -10.2470    0.0000 C   0  0  0  0  0  0  0  0  0  0  0  0
   -4.4515   -6.2886    0.0000 C   0  0  0  0  0  0  0  0  0  0  0  0
   -5.9004   -5.9004    0.0000 O   0  0  0  0  0  0  0  0  0  0  0  0
   -3.5517   -1.4712    0.0000 C   0  0  0  0  0  0  0  0  0  0  0  0
   -4.9376   -2.0452    0.0000 C   0  0  0  0  0  0  0  0  0  0  0  0
   -6.1276   -1.1321    0.0000 C   0  0  0  0  0  0  0  0  0  0  0  0
   -7.5134   -1.7061    0.0000 O   0  0  0  0  0  0  0  0  0  0  0  0
   -3.8444    0.0000    0.0000 C   0  0  0  0  0  0  0  0  0  0  0  0
   -3.5517    1.4712    0.0000 C   0  0  0  0  0  0  0  0  0  0  0  0
   -4.9376    2.0452    0.0000 C   0  0  0  0  0  0  0  0  0  0  0  0
   -2.7184    2.7184    0.0000 C   0  0  0  0  0  0  0  0  0  0  0  0
   -3.7790    3.7790    0.0000 O   0  0  0  0  0  0  0  0  0  0  0  0
   -1.4712    3.5517    0.0000 C   0  0  0  0  0  0  0  0  0  0  0  0
    0.0000    3.8444    0.0000 C   0  0  0  0  0  0  0  0  0  0  0  0
    1.4712    3.5517    0.0000 C   0  0  0  0  0  0  0  0  0  0  0  0
    2.0452    4.9376    0.0000 C   0  0  0  0  0  0  0  0  0  0  0  0
    2.7184    2.7184    0.0000 C   0  0  0  0  0  0  0  0  0  0  0  0
    3.5517    1.4712    0.0000 C   0  0  0  0  0  0  0  0  0  0  0  0
    4.9376    2.0452    0.0000 C   0  0  0  0  0  0  0  0  0  0  0  0
  1  2  1  0
  2  3  1  0
  3  4  1  0
  4  5  1  0
  5  6  2  0
  5  7  1  0
  7  8  1  0
  8  9  1  0
  8 10  1  0
 10 11  1  0
 10 12  1  0
 12 13  1  0
 13 14  1  0
 14 15  1  0
 15 16  1  0
 16 17  1  0
 16 18  1  0
 18 19  1  0
 19 20  1  0
 20 21  1  0
 21 22  1  0
 22 23  1  0
 22 24  1  0
 22 25  1  0
 25 26  1  0
 25 27  1  0
 27 28  1  0
 27 29  1  0
 18 30  1  0
 30 31  1  0
 31 32  1  0
 31 33  1  0
 30 34  1  0
 34 35  1  0
 12 36  1  0
 36 37  1  0
 37 38  1  0
 38 39  1  0
 36 40  1  0
 40 41  1  0
 41 42  1  0
 41 43  1  0
 43 44  2  0
 43 45  1  0
 45 46  2  0
 46 47  1  0
 47 48  1  0
 47 49  2  0
 49 50  1  0
 50 51  1  0
 50  3  1  0
 34 14  1  0
 29 20  1  0
M  END
>  <ChEMBL_IDs>  (283) 
nan

>  <target_organism>  (283) 
nan

>  <target_molecule_pref_name>  (283) 
nan

>  <# Known Targets>  (283) 
nan

>  <Known Targets>  (283) 
nan

>  <smiles>  (283) 
CCC1OC(=O)CC(O)C(C)C(OC2OC(C)C(OC3CC(C)(O)C(O)C(C)O3)C(N(C)C)C2O)C(CCO)CC(C)C(=O)/C=C\C(C)=C/C1C

$$$$

     RDKit          2D

 52 54  0  0  0  0  0  0  0  0999 V2000
    6.0944   -1.2990    0.0000 C   0  0  0  0  0  0  0  0  0  0  0  0
    5.3444    0.0000    0.0000 C   0  0  0  0  0  0  0  0  0  0  0  0
    3.8444    0.0000    0.0000 C   0  0  0  0  0  0  0  0  0  0  0  0
    3.5517   -1.4712    0.0000 O   0  0  0  0  0  0  0  0  0  0  0  0
    2.7184   -2.7184    0.0000 C   0  0  0  0  0  0  0  0  0  0  0  0
    3.7790   -3.7790    0.0000 O   0  0  0  0  0  0  0  0  0  0  0  0
    1.4712   -3.5517    0.0000 C   0  0  0  0  0  0  0  0  0  0  0  0
   -0.0000   -3.8444    0.0000 C   0  0  0  0  0  0  0  0  0  0  0  0
   -0.0000   -5.3444    0.0000 O   0  0  0  0  0  0  0  0  0  0  0  0
   -1.4712   -3.5517    0.0000 C   0  0  0  0  0  0  0  0  0  0  0  0
   -1.6507   -4.7534    0.0000 C   0  0  0  0  0  0  0  0  0  0  0  0
   -2.7184   -2.7184    0.0000 C   0  0  0  0  0  0  0  0  0  0  0  0
   -3.7790   -3.7790    0.0000 O   0  0  0  0  0  0  0  0  0  0  0  0
   -3.3908   -5.2279    0.0000 C   0  0  0  0  0  0  0  0  0  0  0  0
   -1.9419   -5.6162    0.0000 O   0  0  0  0  0  0  0  0  0  0  0  0
   -1.5537   -7.0650    0.0000 C   0  0  0  0  0  0  0  0  0  0  0  0
   -0.1048   -7.4533    0.0000 C   0  0  0  0  0  0  0  0  0  0  0  0
   -2.6144   -8.1257    0.0000 C   0  0  0  0  0  0  0  0  0  0  0  0
   -2.2261   -9.5746    0.0000 O   0  0  0  0  0  0  0  0  0  0  0  0
   -0.7772   -9.9628    0.0000 C   0  0  0  0  0  0  0  0  0  0  0  0
   -0.3890  -11.4117    0.0000 C   0  0  0  0  0  0  0  0  0  0  0  0
    1.0599  -11.7999    0.0000 C   0  0  0  0  0  0  0  0  0  0  0  0
    2.2886  -12.6603    0.0000 C   0  0  0  0  0  0  0  0  0  0  0  0
    0.4260  -13.1594    0.0000 O   0  0  0  0  0  0  0  0  0  0  0  0
    2.1205  -10.7393    0.0000 C   0  0  0  0  0  0  0  0  0  0  0  0
    3.5694  -11.1275    0.0000 O   0  0  0  0  0  0  0  0  0  0  0  0
    1.7323   -9.2904    0.0000 C   0  0  0  0  0  0  0  0  0  0  0  0
    2.7930   -8.2297    0.0000 C   0  0  0  0  0  0  0  0  0  0  0  0
    0.2834   -8.9022    0.0000 O   0  0  0  0  0  0  0  0  0  0  0  0
   -4.0632   -7.7375    0.0000 C   0  0  0  0  0  0  0  0  0  0  0  0
   -5.1239   -8.7981    0.0000 N   0  0  0  0  0  0  0  0  0  0  0  0
   -6.5728   -8.4099    0.0000 C   0  0  0  0  0  0  0  0  0  0  0  0
   -4.7357  -10.2470    0.0000 C   0  0  0  0  0  0  0  0  0  0  0  0
   -4.4515   -6.2886    0.0000 C   0  0  0  0  0  0  0  0  0  0  0  0
   -5.9004   -5.9004    0.0000 O   0  0  0  0  0  0  0  0  0  0  0  0
   -3.5517   -1.4712    0.0000 C   0  0  0  0  0  0  0  0  0  0  0  0
   -4.9376   -2.0452    0.0000 C   0  0  0  0  0  0  0  0  0  0  0  0
   -6.1276   -1.1321    0.0000 C   0  0  0  0  0  0  0  0  0  0  0  0
   -7.5134   -1.7061    0.0000 O   0  0  0  0  0  0  0  0  0  0  0  0
   -3.8444    0.0000    0.0000 C   0  0  0  0  0  0  0  0  0  0  0  0
   -3.5517    1.4712    0.0000 C   0  0  0  0  0  0  0  0  0  0  0  0
   -4.9376    2.0452    0.0000 C   0  0  0  0  0  0  0  0  0  0  0  0
   -2.7184    2.7184    0.0000 C   0  0  0  0  0  0  0  0  0  0  0  0
   -3.7790    3.7790    0.0000 O   0  0  0  0  0  0  0  0  0  0  0  0
   -1.4712    3.5517    0.0000 C   0  0  0  0  0  0  0  0  0  0  0  0
    0.0000    3.8444    0.0000 C   0  0  0  0  0  0  0  0  0  0  0  0
    1.4712    3.5517    0.0000 C   0  0  0  0  0  0  0  0  0  0  0  0
    2.0452    4.9376    0.0000 C   0  0  0  0  0  0  0  0  0  0  0  0
    2.7184    2.7184    0.0000 C   0  0  0  0  0  0  0  0  0  0  0  0
    3.5517    1.4712    0.0000 C   0  0  0  0  0  0  0  0  0  0  0  0
    4.9376    2.0452    0.0000 C   0  0  0  0  0  0  0  0  0  0  0  0
    6.1276    1.1321    0.0000 O   0  0  0  0  0  0  0  0  0  0  0  0
  1  2  1  0
  3  2  1  1
  3  4  1  0
  4  5  1  0
  5  6  2  0
  5  7  1  0
  7  8  1  0
  8  9  1  1
  8 10  1  0
 10 11  1  6
 10 12  1  0
 12 13  1  1
 14 13  1  6
 14 15  1  0
 15 16  1  0
 16 17  1  6
 16 18  1  0
 18 19  1  1
 20 19  1  6
 20 21  1  0
 21 22  1  0
 22 23  1  1
 22 24  1  0
 22 25  1  0
 25 26  1  6
 25 27  1  0
 27 28  1  1
 27 29  1  0
 18 30  1  0
 30 31  1  6
 31 32  1  0
 31 33  1  0
 30 34  1  0
 34 35  1  1
 12 36  1  0
 36 37  1  1
 37 38  1  0
 38 39  1  0
 36 40  1  0
 40 41  1  0
 41 42  1  1
 41 43  1  0
 43 44  2  0
 43 45  1  0
 45 46  2  0
 46 47  1  0
 47 48  1  0
 47 49  2  0
 49 50  1  0
 50 51  1  6
 51 52  1  0
 50  3  1  0
 34 14  1  0
 29 20  1  0
M  END
>  <ChEMBL_IDs>  (284) 
CHEMBL295744

>  <target_organism>  (284) 
None

>  <target_molecule_pref_name>  (284) 
nan

>  <# Known Targets>  (284) 
nan

>  <Known Targets>  (284) 
nan

>  <smiles>  (284) 
CC[C@H]1OC(=O)C[C@@H](O)[C@H](C)[C@@H](O[C@@H]2O[C@H](C)[C@@H](O[C@H]3C[C@@](C)(O)[C@@H](O)[C@H](C)O3)[C@H](N(C)C)[C@H]2O)[C@@H](CCO)C[C@@H](C)C(=O)/C=C/C(C)=C/[C@@H]1CO

$$$$

     RDKit          2D

 52 54  0  0  0  0  0  0  0  0999 V2000
    6.0944   -1.2990    0.0000 C   0  0  0  0  0  0  0  0  0  0  0  0
    5.3444    0.0000    0.0000 C   0  0  0  0  0  0  0  0  0  0  0  0
    3.8444    0.0000    0.0000 C   0  0  0  0  0  0  0  0  0  0  0  0
    3.5517   -1.4712    0.0000 C   0  0  0  0  0  0  0  0  0  0  0  0
    2.7184   -2.7184    0.0000 C   0  0  0  0  0  0  0  0  0  0  0  0
    3.7790   -3.7790    0.0000 C   0  0  0  0  0  0  0  0  0  0  0  0
    1.4712   -3.5517    0.0000 C   0  0  0  0  0  0  0  0  0  0  0  0
    2.0452   -4.9376    0.0000 O   0  0  0  0  0  0  0  0  0  0  0  0
   -0.0000   -3.8444    0.0000 C   0  0  0  0  0  0  0  0  0  0  0  0
   -1.4712   -3.5517    0.0000 C   0  0  0  0  0  0  0  0  0  0  0  0
   -2.7184   -2.7184    0.0000 C   0  0  0  0  0  0  0  0  0  0  0  0
   -3.7790   -3.7790    0.0000 C   0  0  0  0  0  0  0  0  0  0  0  0
   -3.5517   -1.4712    0.0000 C   0  0  0  0  0  0  0  0  0  0  0  0
   -3.8444    0.0000    0.0000 C   0  0  0  0  0  0  0  0  0  0  0  0
   -5.3444    0.0000    0.0000 C   0  0  0  0  0  0  0  0  0  0  0  0
   -6.0944    1.2990    0.0000 O   0  0  0  0  0  0  0  0  0  0  0  0
   -7.5944    1.2990    0.0000 C   0  0  0  0  0  0  0  0  0  0  0  0
   -8.3444    2.5981    0.0000 O   0  0  0  0  0  0  0  0  0  0  0  0
   -9.8444    2.5981    0.0000 C   0  0  0  0  0  0  0  0  0  0  0  0
  -10.5944    3.8971    0.0000 C   0  0  0  0  0  0  0  0  0  0  0  0
  -10.5944    1.2990    0.0000 C   0  0  0  0  0  0  0  0  0  0  0  0
  -12.0944    1.2990    0.0000 O   0  0  0  0  0  0  0  0  0  0  0  0
   -9.8444    0.0000    0.0000 C   0  0  0  0  0  0  0  0  0  0  0  0
  -10.5944   -1.2990    0.0000 O   0  0  0  0  0  0  0  0  0  0  0  0
   -8.3444    0.0000    0.0000 C   0  0  0  0  0  0  0  0  0  0  0  0
   -7.5944   -1.2990    0.0000 O   0  0  0  0  0  0  0  0  0  0  0  0
   -8.3444   -2.5981    0.0000 C   0  0  0  0  0  0  0  0  0  0  0  0
   -3.5517    1.4712    0.0000 C   0  0  0  0  0  0  0  0  0  0  0  0
   -4.9376    2.0452    0.0000 C   0  0  0  0  0  0  0  0  0  0  0  0
   -5.1333    3.5324    0.0000 C   0  0  0  0  0  0  0  0  0  0  0  0
   -2.7184    2.7184    0.0000 O   0  0  0  0  0  0  0  0  0  0  0  0
   -1.4712    3.5517    0.0000 C   0  0  0  0  0  0  0  0  0  0  0  0
   -2.0452    4.9376    0.0000 O   0  0  0  0  0  0  0  0  0  0  0  0
    0.0000    3.8444    0.0000 C   0  0  0  0  0  0  0  0  0  0  0  0
    1.4712    3.5517    0.0000 C   0  0  0  0  0  0  0  0  0  0  0  0
    2.0452    4.9376    0.0000 O   0  0  0  0  0  0  0  0  0  0  0  0
    2.7184    2.7184    0.0000 C   0  0  0  0  0  0  0  0  0  0  0  0
    3.3441    3.7599    0.0000 C   0  0  0  0  0  0  0  0  0  0  0  0
    3.5517    1.4712    0.0000 C   0  0  0  0  0  0  0  0  0  0  0  0
    4.9376    2.0452    0.0000 O   0  0  0  0  0  0  0  0  0  0  0  0
    5.1333    3.5324    0.0000 C   0  0  0  0  0  0  0  0  0  0  0  0
    3.9433    4.4455    0.0000 O   0  0  0  0  0  0  0  0  0  0  0  0
    4.1391    5.9327    0.0000 C   0  0  0  0  0  0  0  0  0  0  0  0
    2.9491    6.8458    0.0000 C   0  0  0  0  0  0  0  0  0  0  0  0
    5.5249    6.5067    0.0000 C   0  0  0  0  0  0  0  0  0  0  0  0
    5.7207    7.9939    0.0000 O   0  0  0  0  0  0  0  0  0  0  0  0
    6.7150    5.5936    0.0000 C   0  0  0  0  0  0  0  0  0  0  0  0
    8.1008    6.1676    0.0000 N   0  0  0  0  0  0  0  0  0  0  0  0
    9.2908    5.2544    0.0000 C   0  0  0  0  0  0  0  0  0  0  0  0
    8.2966    7.6548    0.0000 C   0  0  0  0  0  0  0  0  0  0  0  0
    6.5192    4.1064    0.0000 C   0  0  0  0  0  0  0  0  0  0  0  0
    7.7092    3.1933    0.0000 O   0  0  0  0  0  0  0  0  0  0  0  0
  1  2  1  0
  3  2  1  1
  3  4  1  0
  4  5  1  0
  5  6  1  1
  5  7  1  0
  7  8  2  0
  7  9  1  0
  9 10  2  0
 10 11  1  0
 11 12  1  0
 11 13  2  0
 13 14  1  0
 14 15  1  6
 15 16  1  0
 17 16  1  1
 17 18  1  0
 18 19  1  0
 19 20  1  1
 19 21  1  0
 21 22  1  6
 21 23  1  0
 23 24  1  6
 23 25  1  0
 25 26  1  6
 26 27  1  0
 14 28  1  0
 28 29  1  1
 29 30  1  0
 28 31  1  0
 31 32  1  0
 32 33  2  0
 32 34  1  0
 34 35  1  0
 35 36  1  1
 35 37  1  0
 37 38  1  6
 37 39  1  0
 39 40  1  1
 41 40  1  6
 41 42  1  0
 42 43  1  0
 43 44  1  6
 43 45  1  0
 45 46  1  1
 45 47  1  0
 47 48  1  6
 48 49  1  0
 48 50  1  0
 47 51  1  0
 51 52  1  1
 39  3  1  0
 51 41  1  0
 25 17  1  0
M  END
>  <ChEMBL_IDs>  (285) 
CHEMBL44306

>  <target_organism>  (285) 
Rattus norvegicus

>  <target_molecule_pref_name>  (285) 
nan

>  <# Known Targets>  (285) 
nan

>  <Known Targets>  (285) 
nan

>  <smiles>  (285) 
CC[C@H]1C[C@@H](C)C(=O)/C=C/C(C)=C/[C@H](CO[C@@H]2O[C@H](C)[C@@H](O)[C@@H](O)[C@H]2OC)[C@@H](CC)OC(=O)C[C@@H](O)[C@H](C)[C@H]1O[C@@H]1O[C@H](C)[C@@H](O)[C@H](N(C)C)[C@H]1O

$$$$

     RDKit          2D

 52 54  0  0  0  0  0  0  0  0999 V2000
    6.0944   -1.2990    0.0000 C   0  0  0  0  0  0  0  0  0  0  0  0
    5.3444    0.0000    0.0000 C   0  0  0  0  0  0  0  0  0  0  0  0
    3.8444    0.0000    0.0000 C   0  0  0  0  0  0  0  0  0  0  0  0
    3.5517   -1.4712    0.0000 O   0  0  0  0  0  0  0  0  0  0  0  0
    2.7184   -2.7184    0.0000 C   0  0  0  0  0  0  0  0  0  0  0  0
    3.7790   -3.7790    0.0000 O   0  0  0  0  0  0  0  0  0  0  0  0
    1.4712   -3.5517    0.0000 C   0  0  0  0  0  0  0  0  0  0  0  0
   -0.0000   -3.8444    0.0000 C   0  0  0  0  0  0  0  0  0  0  0  0
   -0.0000   -5.3444    0.0000 O   0  0  0  0  0  0  0  0  0  0  0  0
   -1.4712   -3.5517    0.0000 C   0  0  0  0  0  0  0  0  0  0  0  0
   -2.0452   -4.9376    0.0000 C   0  0  0  0  0  0  0  0  0  0  0  0
   -2.7184   -2.7184    0.0000 C   0  0  0  0  0  0  0  0  0  0  0  0
   -3.7790   -3.7790    0.0000 O   0  0  0  0  0  0  0  0  0  0  0  0
   -5.2279   -3.3908    0.0000 C   0  0  0  0  0  0  0  0  0  0  0  0
   -5.6162   -1.9419    0.0000 O   0  0  0  0  0  0  0  0  0  0  0  0
   -7.0650   -1.5537    0.0000 C   0  0  0  0  0  0  0  0  0  0  0  0
   -7.4533   -0.1048    0.0000 C   0  0  0  0  0  0  0  0  0  0  0  0
   -8.1257   -2.6144    0.0000 C   0  0  0  0  0  0  0  0  0  0  0  0
   -9.5746   -2.2261    0.0000 O   0  0  0  0  0  0  0  0  0  0  0  0
   -7.7375   -4.0632    0.0000 C   0  0  0  0  0  0  0  0  0  0  0  0
   -8.7981   -5.1239    0.0000 N   0  0  0  0  0  0  0  0  0  0  0  0
   -8.4099   -6.5728    0.0000 C   0  0  0  0  0  0  0  0  0  0  0  0
  -10.2470   -4.7357    0.0000 C   0  0  0  0  0  0  0  0  0  0  0  0
   -6.2886   -4.4515    0.0000 C   0  0  0  0  0  0  0  0  0  0  0  0
   -5.9004   -5.9004    0.0000 O   0  0  0  0  0  0  0  0  0  0  0  0
   -3.5517   -1.4712    0.0000 C   0  0  0  0  0  0  0  0  0  0  0  0
   -4.7534   -1.6507    0.0000 C   0  0  0  0  0  0  0  0  0  0  0  0
   -3.8444    0.0000    0.0000 C   0  0  0  0  0  0  0  0  0  0  0  0
   -3.5517    1.4712    0.0000 C   0  0  0  0  0  0  0  0  0  0  0  0
   -4.9376    2.0452    0.0000 C   0  0  0  0  0  0  0  0  0  0  0  0
   -2.7184    2.7184    0.0000 C   0  0  0  0  0  0  0  0  0  0  0  0
   -3.7790    3.7790    0.0000 O   0  0  0  0  0  0  0  0  0  0  0  0
   -1.4712    3.5517    0.0000 C   0  0  0  0  0  0  0  0  0  0  0  0
    0.0000    3.8444    0.0000 C   0  0  0  0  0  0  0  0  0  0  0  0
    1.4712    3.5517    0.0000 C   0  0  0  0  0  0  0  0  0  0  0  0
    2.0452    4.9376    0.0000 C   0  0  0  0  0  0  0  0  0  0  0  0
    2.7184    2.7184    0.0000 C   0  0  0  0  0  0  0  0  0  0  0  0
    3.5517    1.4712    0.0000 C   0  0  0  0  0  0  0  0  0  0  0  0
    4.9376    2.0452    0.0000 C   0  0  0  0  0  0  0  0  0  0  0  0
    6.1276    1.1321    0.0000 O   0  0  0  0  0  0  0  0  0  0  0  0
    7.5134    1.7061    0.0000 C   0  0  0  0  0  0  0  0  0  0  0  0
    8.7034    0.7929    0.0000 O   0  0  0  0  0  0  0  0  0  0  0  0
   10.0893    1.3670    0.0000 C   0  0  0  0  0  0  0  0  0  0  0  0
   11.2793    0.4538    0.0000 C   0  0  0  0  0  0  0  0  0  0  0  0
   10.2850    2.8541    0.0000 C   0  0  0  0  0  0  0  0  0  0  0  0
   11.6709    3.4282    0.0000 O   0  0  0  0  0  0  0  0  0  0  0  0
    9.0950    3.7673    0.0000 C   0  0  0  0  0  0  0  0  0  0  0  0
    9.2908    5.2544    0.0000 O   0  0  0  0  0  0  0  0  0  0  0  0
    8.1008    6.1676    0.0000 C   0  0  0  0  0  0  0  0  0  0  0  0
    7.7092    3.1933    0.0000 C   0  0  0  0  0  0  0  0  0  0  0  0
    6.5192    4.1064    0.0000 O   0  0  0  0  0  0  0  0  0  0  0  0
    6.7150    5.5936    0.0000 C   0  0  0  0  0  0  0  0  0  0  0  0
  1  2  1  0
  3  2  1  1
  3  4  1  0
  4  5  1  0
  5  6  2  0
  5  7  1  0
  7  8  1  0
  8  9  1  1
  8 10  1  0
 10 11  1  6
 10 12  1  0
 12 13  1  1
 14 13  1  1
 14 15  1  0
 15 16  1  0
 16 17  1  1
 16 18  1  0
 18 19  1  6
 18 20  1  0
 20 21  1  1
 21 22  1  0
 21 23  1  0
 20 24  1  0
 24 25  1  6
 12 26  1  0
 26 27  1  1
 26 28  1  0
 28 29  1  0
 29 30  1  1
 29 31  1  0
 31 32  2  0
 31 33  1  0
 33 34  2  0
 34 35  1  0
 35 36  1  0
 35 37  2  0
 37 38  1  0
 38 39  1  6
 39 40  1  0
 41 40  1  1
 41 42  1  0
 42 43  1  0
 43 44  1  1
 43 45  1  0
 45 46  1  6
 45 47  1  0
 47 48  1  6
 48 49  1  0
 47 50  1  0
 50 51  1  6
 51 52  1  0
 38  3  1  0
 50 41  1  0
 24 14  1  0
M  END
>  <ChEMBL_IDs>  (286) 
CHEMBL45421

>  <target_organism>  (286) 
Rattus norvegicus

>  <target_molecule_pref_name>  (286) 
nan

>  <# Known Targets>  (286) 
nan

>  <Known Targets>  (286) 
nan

>  <smiles>  (286) 
CC[C@H]1OC(=O)C[C@@H](O)[C@H](C)[C@@H](O[C@@H]2O[C@H](C)[C@@H](O)[C@H](N(C)C)[C@H]2O)[C@@H](C)C[C@@H](C)C(=O)/C=C/C(C)=C/[C@@H]1CO[C@@H]1O[C@H](C)[C@@H](O)[C@@H](OC)[C@H]1OC

$$$$

     RDKit          2D

 53 55  0  0  0  0  0  0  0  0999 V2000
    6.0944   -1.2990    0.0000 C   0  0  0  0  0  0  0  0  0  0  0  0
    5.3444    0.0000    0.0000 C   0  0  0  0  0  0  0  0  0  0  0  0
    3.8444    0.0000    0.0000 C   0  0  0  0  0  0  0  0  0  0  0  0
    3.5517   -1.4712    0.0000 O   0  0  0  0  0  0  0  0  0  0  0  0
    2.7184   -2.7184    0.0000 C   0  0  0  0  0  0  0  0  0  0  0  0
    3.7790   -3.7790    0.0000 O   0  0  0  0  0  0  0  0  0  0  0  0
    1.4712   -3.5517    0.0000 C   0  0  0  0  0  0  0  0  0  0  0  0
   -0.0000   -3.8444    0.0000 C   0  0  0  0  0  0  0  0  0  0  0  0
   -0.0000   -5.3444    0.0000 O   0  0  0  0  0  0  0  0  0  0  0  0
   -1.4712   -3.5517    0.0000 C   0  0  0  0  0  0  0  0  0  0  0  0
   -1.6507   -4.7534    0.0000 C   0  0  0  0  0  0  0  0  0  0  0  0
   -2.7184   -2.7184    0.0000 C   0  0  0  0  0  0  0  0  0  0  0  0
   -3.7790   -3.7790    0.0000 O   0  0  0  0  0  0  0  0  0  0  0  0
   -3.3908   -5.2279    0.0000 C   0  0  0  0  0  0  0  0  0  0  0  0
   -1.9419   -5.6162    0.0000 O   0  0  0  0  0  0  0  0  0  0  0  0
   -1.5537   -7.0650    0.0000 C   0  0  0  0  0  0  0  0  0  0  0  0
   -0.1048   -7.4533    0.0000 C   0  0  0  0  0  0  0  0  0  0  0  0
   -2.6144   -8.1257    0.0000 C   0  0  0  0  0  0  0  0  0  0  0  0
   -2.2261   -9.5746    0.0000 O   0  0  0  0  0  0  0  0  0  0  0  0
   -4.0632   -7.7375    0.0000 C   0  0  0  0  0  0  0  0  0  0  0  0
   -5.1239   -8.7981    0.0000 N   0  0  0  0  0  0  0  0  0  0  0  0
   -6.5728   -8.4099    0.0000 C   0  0  0  0  0  0  0  0  0  0  0  0
   -4.7357  -10.2470    0.0000 C   0  0  0  0  0  0  0  0  0  0  0  0
   -4.4515   -6.2886    0.0000 C   0  0  0  0  0  0  0  0  0  0  0  0
   -5.9004   -5.9004    0.0000 O   0  0  0  0  0  0  0  0  0  0  0  0
   -3.5517   -1.4712    0.0000 C   0  0  0  0  0  0  0  0  0  0  0  0
   -4.9376   -2.0452    0.0000 C   0  0  0  0  0  0  0  0  0  0  0  0
   -6.1276   -1.1321    0.0000 C   0  0  0  0  0  0  0  0  0  0  0  0
   -7.5134   -1.7061    0.0000 O   0  0  0  0  0  0  0  0  0  0  0  0
   -3.8444    0.0000    0.0000 C   0  0  0  0  0  0  0  0  0  0  0  0
   -3.5517    1.4712    0.0000 C   0  0  0  0  0  0  0  0  0  0  0  0
   -4.9376    2.0452    0.0000 C   0  0  0  0  0  0  0  0  0  0  0  0
   -2.7184    2.7184    0.0000 C   0  0  0  0  0  0  0  0  0  0  0  0
   -3.7790    3.7790    0.0000 O   0  0  0  0  0  0  0  0  0  0  0  0
   -1.4712    3.5517    0.0000 C   0  0  0  0  0  0  0  0  0  0  0  0
    0.0000    3.8444    0.0000 C   0  0  0  0  0  0  0  0  0  0  0  0
    1.4712    3.5517    0.0000 C   0  0  0  0  0  0  0  0  0  0  0  0
    2.0452    4.9376    0.0000 C   0  0  0  0  0  0  0  0  0  0  0  0
    2.7184    2.7184    0.0000 C   0  0  0  0  0  0  0  0  0  0  0  0
    3.5517    1.4712    0.0000 C   0  0  0  0  0  0  0  0  0  0  0  0
    4.9376    2.0452    0.0000 C   0  0  0  0  0  0  0  0  0  0  0  0
    6.1276    1.1321    0.0000 O   0  0  0  0  0  0  0  0  0  0  0  0
    7.5134    1.7061    0.0000 C   0  0  0  0  0  0  0  0  0  0  0  0
    8.7034    0.7929    0.0000 O   0  0  0  0  0  0  0  0  0  0  0  0
   10.0893    1.3670    0.0000 C   0  0  0  0  0  0  0  0  0  0  0  0
   11.2793    0.4538    0.0000 C   0  0  0  0  0  0  0  0  0  0  0  0
   10.2850    2.8541    0.0000 C   0  0  0  0  0  0  0  0  0  0  0  0
   11.6709    3.4282    0.0000 O   0  0  0  0  0  0  0  0  0  0  0  0
    9.0950    3.7673    0.0000 C   0  0  0  0  0  0  0  0  0  0  0  0
    9.2908    5.2544    0.0000 O   0  0  0  0  0  0  0  0  0  0  0  0
    7.7092    3.1933    0.0000 C   0  0  0  0  0  0  0  0  0  0  0  0
    6.5192    4.1064    0.0000 O   0  0  0  0  0  0  0  0  0  0  0  0
    6.7150    5.5936    0.0000 C   0  0  0  0  0  0  0  0  0  0  0  0
  1  2  1  0
  3  2  1  1
  3  4  1  0
  4  5  1  0
  5  6  2  0
  5  7  1  0
  7  8  1  0
  8  9  1  1
  8 10  1  0
 10 11  1  6
 10 12  1  0
 12 13  1  1
 14 13  1  6
 14 15  1  0
 15 16  1  0
 16 17  1  6
 16 18  1  0
 18 19  1  1
 18 20  1  0
 20 21  1  6
 21 22  1  0
 21 23  1  0
 20 24  1  0
 24 25  1  1
 12 26  1  0
 26 27  1  1
 27 28  1  0
 28 29  1  0
 26 30  1  0
 30 31  1  0
 31 32  1  1
 31 33  1  0
 33 34  2  0
 33 35  1  0
 35 36  2  0
 36 37  1  0
 37 38  1  0
 37 39  2  0
 39 40  1  0
 40 41  1  6
 41 42  1  0
 43 42  1  1
 43 44  1  0
 44 45  1  0
 45 46  1  1
 45 47  1  0
 47 48  1  6
 47 49  1  0
 49 50  1  6
 49 51  1  0
 51 52  1  6
 52 53  1  0
 40  3  1  0
 51 43  1  0
 24 14  1  0
M  END
>  <ChEMBL_IDs>  (287) 
CHEMBL42240

>  <target_organism>  (287) 
Rattus norvegicus

>  <target_molecule_pref_name>  (287) 
nan

>  <# Known Targets>  (287) 
nan

>  <Known Targets>  (287) 
nan

>  <smiles>  (287) 
CC[C@H]1OC(=O)C[C@@H](O)[C@H](C)[C@@H](O[C@@H]2O[C@H](C)[C@@H](O)[C@H](N(C)C)[C@H]2O)[C@@H](CCO)C[C@@H](C)C(=O)/C=C/C(C)=C/[C@@H]1CO[C@@H]1O[C@H](C)[C@@H](O)[C@@H](O)[C@H]1OC

$$$$

     RDKit          2D

 52 54  0  0  0  0  0  0  0  0999 V2000
    6.0944   -1.2990    0.0000 C   0  0  0  0  0  0  0  0  0  0  0  0
    5.3444    0.0000    0.0000 C   0  0  0  0  0  0  0  0  0  0  0  0
    3.8444    0.0000    0.0000 C   0  0  0  0  0  0  0  0  0  0  0  0
    3.5517   -1.4712    0.0000 O   0  0  0  0  0  0  0  0  0  0  0  0
    2.7184   -2.7184    0.0000 C   0  0  0  0  0  0  0  0  0  0  0  0
    3.7790   -3.7790    0.0000 O   0  0  0  0  0  0  0  0  0  0  0  0
    1.4712   -3.5517    0.0000 C   0  0  0  0  0  0  0  0  0  0  0  0
   -0.0000   -3.8444    0.0000 C   0  0  0  0  0  0  0  0  0  0  0  0
   -0.0000   -5.3444    0.0000 O   0  0  0  0  0  0  0  0  0  0  0  0
   -1.4712   -3.5517    0.0000 C   0  0  0  0  0  0  0  0  0  0  0  0
   -1.6507   -4.7534    0.0000 C   0  0  0  0  0  0  0  0  0  0  0  0
   -2.7184   -2.7184    0.0000 C   0  0  0  0  0  0  0  0  0  0  0  0
   -3.7790   -3.7790    0.0000 O   0  0  0  0  0  0  0  0  0  0  0  0
   -3.3908   -5.2279    0.0000 C   0  0  0  0  0  0  0  0  0  0  0  0
   -1.9419   -5.6162    0.0000 O   0  0  0  0  0  0  0  0  0  0  0  0
   -1.5537   -7.0650    0.0000 C   0  0  0  0  0  0  0  0  0  0  0  0
   -2.6144   -8.1257    0.0000 C   0  0  0  0  0  0  0  0  0  0  0  0
   -4.0632   -7.7375    0.0000 C   0  0  0  0  0  0  0  0  0  0  0  0
   -5.1239   -8.7981    0.0000 N   0  0  0  0  0  0  0  0  0  0  0  0
   -4.7357  -10.2470    0.0000 C   0  0  0  0  0  0  0  0  0  0  0  0
   -6.5728   -8.4099    0.0000 C   0  0  0  0  0  0  0  0  0  0  0  0
   -4.4515   -6.2886    0.0000 C   0  0  0  0  0  0  0  0  0  0  0  0
   -5.9004   -5.9004    0.0000 O   0  0  0  0  0  0  0  0  0  0  0  0
   -3.5517   -1.4712    0.0000 C   0  0  0  0  0  0  0  0  0  0  0  0
   -4.9376   -2.0452    0.0000 C   0  0  0  0  0  0  0  0  0  0  0  0
   -6.1276   -1.1321    0.0000 C   0  0  0  0  0  0  0  0  0  0  0  0
   -7.5134   -1.7061    0.0000 O   0  0  0  0  0  0  0  0  0  0  0  0
   -3.8444    0.0000    0.0000 C   0  0  0  0  0  0  0  0  0  0  0  0
   -3.5517    1.4712    0.0000 C   0  0  0  0  0  0  0  0  0  0  0  0
   -4.9376    2.0452    0.0000 C   0  0  0  0  0  0  0  0  0  0  0  0
   -2.7184    2.7184    0.0000 C   0  0  0  0  0  0  0  0  0  0  0  0
   -3.7790    3.7790    0.0000 O   0  0  0  0  0  0  0  0  0  0  0  0
   -1.4712    3.5517    0.0000 C   0  0  0  0  0  0  0  0  0  0  0  0
    0.0000    3.8444    0.0000 C   0  0  0  0  0  0  0  0  0  0  0  0
    1.4712    3.5517    0.0000 C   0  0  0  0  0  0  0  0  0  0  0  0
    2.0452    4.9376    0.0000 C   0  0  0  0  0  0  0  0  0  0  0  0
    2.7184    2.7184    0.0000 C   0  0  0  0  0  0  0  0  0  0  0  0
    3.5517    1.4712    0.0000 C   0  0  0  0  0  0  0  0  0  0  0  0
    4.9376    2.0452    0.0000 C   0  0  0  0  0  0  0  0  0  0  0  0
    6.1276    1.1321    0.0000 O   0  0  0  0  0  0  0  0  0  0  0  0
    7.5134    1.7061    0.0000 C   0  0  0  0  0  0  0  0  0  0  0  0
    8.7034    0.7929    0.0000 O   0  0  0  0  0  0  0  0  0  0  0  0
   10.0893    1.3670    0.0000 C   0  0  0  0  0  0  0  0  0  0  0  0
   11.2793    0.4538    0.0000 C   0  0  0  0  0  0  0  0  0  0  0  0
   10.2850    2.8541    0.0000 C   0  0  0  0  0  0  0  0  0  0  0  0
   11.6709    3.4282    0.0000 O   0  0  0  0  0  0  0  0  0  0  0  0
    9.0950    3.7673    0.0000 C   0  0  0  0  0  0  0  0  0  0  0  0
    9.2908    5.2544    0.0000 O   0  0  0  0  0  0  0  0  0  0  0  0
    8.1008    6.1676    0.0000 C   0  0  0  0  0  0  0  0  0  0  0  0
    7.7092    3.1933    0.0000 C   0  0  0  0  0  0  0  0  0  0  0  0
    6.5192    4.1064    0.0000 O   0  0  0  0  0  0  0  0  0  0  0  0
    6.7150    5.5936    0.0000 C   0  0  0  0  0  0  0  0  0  0  0  0
  1  2  1  0
  3  2  1  1
  3  4  1  0
  4  5  1  0
  5  6  2  0
  5  7  1  0
  7  8  1  0
  8  9  1  1
  8 10  1  0
 10 11  1  6
 10 12  1  0
 12 13  1  1
 13 14  1  0
 14 15  1  0
 15 16  1  0
 16 17  1  0
 17 18  1  0
 18 19  1  0
 19 20  1  0
 19 21  1  0
 18 22  1  0
 22 23  1  0
 12 24  1  0
 24 25  1  1
 25 26  1  0
 26 27  2  0
 24 28  1  0
 28 29  1  0
 29 30  1  1
 29 31  1  0
 31 32  2  0
 31 33  1  0
 33 34  1  0
 34 35  1  0
 35 36  1  0
 35 37  1  0
 37 38  1  0
 38 39  1  6
 39 40  1  0
 40 41  1  0
 41 42  1  0
 42 43  1  0
 43 44  1  0
 43 45  1  0
 45 46  1  0
 45 47  1  0
 47 48  1  0
 48 49  1  0
 47 50  1  0
 50 51  1  0
 51 52  1  0
 38  3  1  0
 50 41  1  0
 22 14  1  0
M  END
>  <ChEMBL_IDs>  (288) 
CHEMBL137200

>  <target_organism>  (288) 
nan

>  <target_molecule_pref_name>  (288) 
nan

>  <# Known Targets>  (288) 
nan

>  <Known Targets>  (288) 
nan

>  <smiles>  (288) 
CC[C@H]1OC(=O)C[C@@H](O)[C@H](C)[C@@H](OC2OCCC(N(C)C)C2O)[C@@H](CC=O)C[C@@H](C)C(=O)CCC(C)C[C@@H]1COC1OC(C)C(O)C(OC)C1OC

$$$$

     RDKit          2D

 54 56  0  0  0  0  0  0  0  0999 V2000
    5.6205   -1.2990    0.0000 C   0  0  0  0  0  0  0  0  0  0  0  0
    4.8705    0.0000    0.0000 C   0  0  0  0  0  0  0  0  0  0  0  0
    3.3705    0.0000    0.0000 C   0  0  0  0  0  0  0  0  0  0  0  0
    3.0367   -1.4624    0.0000 O   0  0  0  0  0  0  0  0  0  0  0  0
    2.1015   -2.6351    0.0000 C   0  0  0  0  0  0  0  0  0  0  0  0
    3.0367   -3.8079    0.0000 O   0  0  0  0  0  0  0  0  0  0  0  0
    0.7500   -3.2860    0.0000 C   0  0  0  0  0  0  0  0  0  0  0  0
    1.3600   -4.4903    0.0000 C   0  0  0  0  0  0  0  0  0  0  0  0
   -0.7500   -3.2860    0.0000 C   0  0  0  0  0  0  0  0  0  0  0  0
   -1.0838   -4.7484    0.0000 O   0  0  0  0  0  0  0  0  0  0  0  0
    0.0158   -5.7686    0.0000 C   0  0  0  0  0  0  0  0  0  0  0  0
   -0.3180   -7.2310    0.0000 C   0  0  0  0  0  0  0  0  0  0  0  0
    0.7816   -8.2513    0.0000 C   0  0  0  0  0  0  0  0  0  0  0  0
    1.4659   -9.5861    0.0000 C   0  0  0  0  0  0  0  0  0  0  0  0
   -0.4141   -9.1570    0.0000 O   0  0  0  0  0  0  0  0  0  0  0  0
   -0.2276  -10.6453    0.0000 C   0  0  0  0  0  0  0  0  0  0  0  0
    2.2150   -7.8091    0.0000 C   0  0  0  0  0  0  0  0  0  0  0  0
    3.3145   -8.8294    0.0000 O   0  0  0  0  0  0  0  0  0  0  0  0
    2.5487   -6.3467    0.0000 C   0  0  0  0  0  0  0  0  0  0  0  0
    3.9821   -5.9046    0.0000 C   0  0  0  0  0  0  0  0  0  0  0  0
    1.4492   -5.3265    0.0000 O   0  0  0  0  0  0  0  0  0  0  0  0
   -2.1015   -2.6351    0.0000 C   0  0  0  0  0  0  0  0  0  0  0  0
   -3.0367   -3.8079    0.0000 C   0  0  0  0  0  0  0  0  0  0  0  0
   -3.0367   -1.4624    0.0000 C   0  0  0  0  0  0  0  0  0  0  0  0
   -4.3881   -2.1132    0.0000 O   0  0  0  0  0  0  0  0  0  0  0  0
   -5.6275   -1.2682    0.0000 C   0  0  0  0  0  0  0  0  0  0  0  0
   -5.5154    0.2276    0.0000 O   0  0  0  0  0  0  0  0  0  0  0  0
   -6.7548    1.0725    0.0000 C   0  0  0  0  0  0  0  0  0  0  0  0
   -6.6427    2.5684    0.0000 C   0  0  0  0  0  0  0  0  0  0  0  0
   -8.1062    0.4217    0.0000 C   0  0  0  0  0  0  0  0  0  0  0  0
   -8.2183   -1.0741    0.0000 C   0  0  0  0  0  0  0  0  0  0  0  0
   -9.5698   -1.7249    0.0000 N   0  0  0  0  0  0  0  0  0  0  0  0
  -10.8091   -0.8799    0.0000 C   0  0  0  0  0  0  0  0  0  0  0  0
   -9.6819   -3.2207    0.0000 C   0  0  0  0  0  0  0  0  0  0  0  0
   -8.4425   -4.0657    0.0000 N   0  0  0  0  0  0  0  0  0  0  0  0
  -11.0333   -3.8715    0.0000 N   0  0  0  0  0  0  0  0  0  0  0  0
   -6.9790   -1.9191    0.0000 C   0  0  0  0  0  0  0  0  0  0  0  0
   -7.0910   -3.4149    0.0000 O   0  0  0  0  0  0  0  0  0  0  0  0
   -3.3705    0.0000    0.0000 C   0  0  0  0  0  0  0  0  0  0  0  0
   -4.6098   -0.8450    0.0000 C   0  0  0  0  0  0  0  0  0  0  0  0
   -4.6098    0.8450    0.0000 O   0  0  0  0  0  0  0  0  0  0  0  0
   -5.3904    0.6832    0.0000 C   0  0  0  0  0  0  0  0  0  0  0  0
   -3.0367    1.4624    0.0000 C   0  0  0  0  0  0  0  0  0  0  0  0
   -2.1015    2.6351    0.0000 C   0  0  0  0  0  0  0  0  0  0  0  0
   -3.0367    3.8079    0.0000 C   0  0  0  0  0  0  0  0  0  0  0  0
   -0.7500    3.2860    0.0000 C   0  0  0  0  0  0  0  0  0  0  0  0
   -1.0838    4.7484    0.0000 O   0  0  0  0  0  0  0  0  0  0  0  0
    0.7500    3.2860    0.0000 C   0  0  0  0  0  0  0  0  0  0  0  0
    1.0838    4.7484    0.0000 C   0  0  0  0  0  0  0  0  0  0  0  0
    2.1015    2.6351    0.0000 C   0  0  0  0  0  0  0  0  0  0  0  0
    3.0367    3.8079    0.0000 O   0  0  0  0  0  0  0  0  0  0  0  0
    3.0367    1.4624    0.0000 C   0  0  0  0  0  0  0  0  0  0  0  0
    3.7867    2.7614    0.0000 C   0  0  0  0  0  0  0  0  0  0  0  0
    4.5199    1.2388    0.0000 O   0  0  0  0  0  0  0  0  0  0  0  0
  1  2  1  0
  3  2  1  1
  3  4  1  0
  4  5  1  0
  5  6  2  0
  5  7  1  0
  7  8  1  6
  7  9  1  0
  9 10  1  1
 11 10  1  6
 11 12  1  0
 12 13  1  0
 13 14  1  1
 13 15  1  0
 15 16  1  0
 13 17  1  0
 17 18  1  6
 17 19  1  0
 19 20  1  1
 19 21  1  0
  9 22  1  0
 22 23  1  6
 22 24  1  0
 24 25  1  1
 26 25  1  1
 26 27  1  0
 27 28  1  0
 28 29  1  1
 28 30  1  0
 30 31  1  0
 31 32  1  1
 32 33  1  0
 32 34  1  0
 34 35  2  0
 34 36  1  0
 31 37  1  0
 37 38  1  6
 24 39  1  0
 39 40  1  1
 39 41  1  0
 41 42  1  0
 39 43  1  0
 43 44  1  0
 44 45  1  1
 44 46  1  0
 46 47  2  0
 46 48  1  0
 48 49  1  6
 48 50  1  0
 50 51  1  1
 50 52  1  0
 52 53  1  1
 52 54  1  0
 52  3  1  0
 21 11  1  0
 37 26  1  0
M  END
>  <ChEMBL_IDs>  (289) 
CHEMBL2063469

>  <target_organism>  (289) 
Plasmodium falciparum

>  <target_molecule_pref_name>  (289) 
nan

>  <# Known Targets>  (289) 
nan

>  <Known Targets>  (289) 
nan

>  <smiles>  (289) 
CC[C@H]1OC(=O)[C@H](C)[C@@H](O[C@H]2C[C@@](C)(OC)[C@@H](O)[C@H](C)O2)[C@H](C)[C@@H](O[C@@H]2O[C@H](C)C[C@H](N(C)C(=N)N)[C@H]2O)[C@](C)(OC)C[C@@H](C)C(=O)[C@H](C)[C@@H](O)[C@]1(C)O

$$$$

     RDKit          2D

 51 53  0  0  0  0  0  0  0  0999 V2000
    5.6205   -1.2990    0.0000 C   0  0  0  0  0  0  0  0  0  0  0  0
    4.8705    0.0000    0.0000 C   0  0  0  0  0  0  0  0  0  0  0  0
    3.3705    0.0000    0.0000 C   0  0  0  0  0  0  0  0  0  0  0  0
    3.0367   -1.4624    0.0000 O   0  0  0  0  0  0  0  0  0  0  0  0
    2.1015   -2.6351    0.0000 C   0  0  0  0  0  0  0  0  0  0  0  0
    3.0367   -3.8079    0.0000 O   0  0  0  0  0  0  0  0  0  0  0  0
    0.7500   -3.2860    0.0000 C   0  0  0  0  0  0  0  0  0  0  0  0
    1.3600   -4.4903    0.0000 C   0  0  0  0  0  0  0  0  0  0  0  0
   -0.7500   -3.2860    0.0000 C   0  0  0  0  0  0  0  0  0  0  0  0
   -1.0838   -4.7484    0.0000 O   0  0  0  0  0  0  0  0  0  0  0  0
    0.0158   -5.7686    0.0000 C   0  0  0  0  0  0  0  0  0  0  0  0
   -0.3180   -7.2310    0.0000 C   0  0  0  0  0  0  0  0  0  0  0  0
    0.7816   -8.2513    0.0000 C   0  0  0  0  0  0  0  0  0  0  0  0
    1.4659   -9.5861    0.0000 C   0  0  0  0  0  0  0  0  0  0  0  0
   -0.4141   -9.1570    0.0000 O   0  0  0  0  0  0  0  0  0  0  0  0
   -0.2276  -10.6453    0.0000 C   0  0  0  0  0  0  0  0  0  0  0  0
    2.2150   -7.8091    0.0000 C   0  0  0  0  0  0  0  0  0  0  0  0
    3.3145   -8.8294    0.0000 O   0  0  0  0  0  0  0  0  0  0  0  0
    2.5487   -6.3467    0.0000 C   0  0  0  0  0  0  0  0  0  0  0  0
    3.9821   -5.9046    0.0000 C   0  0  0  0  0  0  0  0  0  0  0  0
    1.4492   -5.3265    0.0000 O   0  0  0  0  0  0  0  0  0  0  0  0
   -2.1015   -2.6351    0.0000 C   0  0  0  0  0  0  0  0  0  0  0  0
   -3.0367   -3.8079    0.0000 C   0  0  0  0  0  0  0  0  0  0  0  0
   -3.0367   -1.4624    0.0000 C   0  0  0  0  0  0  0  0  0  0  0  0
   -4.3881   -2.1132    0.0000 O   0  0  0  0  0  0  0  0  0  0  0  0
   -5.6275   -1.2682    0.0000 C   0  0  0  0  0  0  0  0  0  0  0  0
   -5.5154    0.2276    0.0000 C   0  0  0  0  0  0  0  0  0  0  0  0
   -6.7548    1.0725    0.0000 C   0  0  0  0  0  0  0  0  0  0  0  0
   -6.6427    2.5684    0.0000 N   0  0  0  0  0  0  0  0  0  0  0  0
   -7.8820    3.4133    0.0000 C   0  0  0  0  0  0  0  0  0  0  0  0
   -5.2912    3.2192    0.0000 C   0  0  0  0  0  0  0  0  0  0  0  0
   -8.1062    0.4217    0.0000 C   0  0  0  0  0  0  0  0  0  0  0  0
   -8.2183   -1.0741    0.0000 C   0  0  0  0  0  0  0  0  0  0  0  0
   -9.5698   -1.7249    0.0000 C   0  0  0  0  0  0  0  0  0  0  0  0
   -6.9790   -1.9191    0.0000 O   0  0  0  0  0  0  0  0  0  0  0  0
   -3.3705    0.0000    0.0000 C   0  0  0  0  0  0  0  0  0  0  0  0
   -4.6098   -0.8450    0.0000 C   0  0  0  0  0  0  0  0  0  0  0  0
   -4.6098    0.8450    0.0000 O   0  0  0  0  0  0  0  0  0  0  0  0
   -5.3904    0.6832    0.0000 C   0  0  0  0  0  0  0  0  0  0  0  0
   -3.0367    1.4624    0.0000 C   0  0  0  0  0  0  0  0  0  0  0  0
   -2.1015    2.6351    0.0000 C   0  0  0  0  0  0  0  0  0  0  0  0
   -3.0367    3.8079    0.0000 C   0  0  0  0  0  0  0  0  0  0  0  0
   -0.7500    3.2860    0.0000 C   0  0  0  0  0  0  0  0  0  0  0  0
   -1.0838    4.7484    0.0000 O   0  0  0  0  0  0  0  0  0  0  0  0
    0.7500    3.2860    0.0000 C   0  0  0  0  0  0  0  0  0  0  0  0
    1.0838    4.7484    0.0000 C   0  0  0  0  0  0  0  0  0  0  0  0
    2.1015    2.6351    0.0000 C   0  0  0  0  0  0  0  0  0  0  0  0
    3.0367    3.8079    0.0000 O   0  0  0  0  0  0  0  0  0  0  0  0
    3.0367    1.4624    0.0000 C   0  0  0  0  0  0  0  0  0  0  0  0
    3.7867    2.7614    0.0000 C   0  0  0  0  0  0  0  0  0  0  0  0
    4.5199    1.2388    0.0000 O   0  0  0  0  0  0  0  0  0  0  0  0
  1  2  1  0
  3  2  1  1
  3  4  1  0
  4  5  1  0
  5  6  2  0
  5  7  1  0
  7  8  1  6
  7  9  1  0
  9 10  1  1
 11 10  1  6
 11 12  1  0
 12 13  1  0
 13 14  1  1
 13 15  1  0
 15 16  1  0
 13 17  1  0
 17 18  1  6
 17 19  1  0
 19 20  1  1
 19 21  1  0
  9 22  1  0
 22 23  1  6
 22 24  1  0
 24 25  1  1
 26 25  1  6
 26 27  1  0
 27 28  1  0
 28 29  1  6
 29 30  1  0
 29 31  1  0
 28 32  1  0
 32 33  1  0
 33 34  1  6
 33 35  1  0
 24 36  1  0
 36 37  1  1
 36 38  1  0
 38 39  1  0
 36 40  1  0
 40 41  1  0
 41 42  1  1
 41 43  1  0
 43 44  2  0
 43 45  1  0
 45 46  1  6
 45 47  1  0
 47 48  1  1
 47 49  1  0
 49 50  1  1
 49 51  1  0
 49  3  1  0
 21 11  1  0
 35 26  1  0
M  END
>  <ChEMBL_IDs>  (290) 
CHEMBL2063471

>  <target_organism>  (290) 
Plasmodium falciparum

>  <target_molecule_pref_name>  (290) 
nan

>  <# Known Targets>  (290) 
nan

>  <Known Targets>  (290) 
nan

>  <smiles>  (290) 
CC[C@H]1OC(=O)[C@H](C)[C@@H](O[C@H]2C[C@@](C)(OC)[C@@H](O)[C@H](C)O2)[C@H](C)[C@@H](O[C@H]2C[C@@H](N(C)C)C[C@@H](C)O2)[C@](C)(OC)C[C@@H](C)C(=O)[C@H](C)[C@@H](O)[C@]1(C)O

$$$$

     RDKit          2D

 51 53  0  0  0  0  0  0  0  0999 V2000
    5.6205   -1.2990    0.0000 C   0  0  0  0  0  0  0  0  0  0  0  0
    4.8705    0.0000    0.0000 C   0  0  0  0  0  0  0  0  0  0  0  0
    3.3705    0.0000    0.0000 C   0  0  0  0  0  0  0  0  0  0  0  0
    3.0367   -1.4624    0.0000 O   0  0  0  0  0  0  0  0  0  0  0  0
    2.1015   -2.6351    0.0000 C   0  0  0  0  0  0  0  0  0  0  0  0
    3.0367   -3.8079    0.0000 O   0  0  0  0  0  0  0  0  0  0  0  0
    0.7500   -3.2860    0.0000 C   0  0  0  0  0  0  0  0  0  0  0  0
    1.3600   -4.4903    0.0000 C   0  0  0  0  0  0  0  0  0  0  0  0
   -0.7500   -3.2860    0.0000 C   0  0  0  0  0  0  0  0  0  0  0  0
   -1.0838   -4.7484    0.0000 O   0  0  0  0  0  0  0  0  0  0  0  0
    0.0158   -5.7686    0.0000 C   0  0  0  0  0  0  0  0  0  0  0  0
   -0.3180   -7.2310    0.0000 C   0  0  0  0  0  0  0  0  0  0  0  0
    0.7816   -8.2513    0.0000 C   0  0  0  0  0  0  0  0  0  0  0  0
    1.4659   -9.5861    0.0000 C   0  0  0  0  0  0  0  0  0  0  0  0
   -0.4141   -9.1570    0.0000 O   0  0  0  0  0  0  0  0  0  0  0  0
   -0.2276  -10.6453    0.0000 C   0  0  0  0  0  0  0  0  0  0  0  0
    2.2150   -7.8091    0.0000 C   0  0  0  0  0  0  0  0  0  0  0  0
    3.3145   -8.8294    0.0000 C   0  0  0  0  0  0  0  0  0  0  0  0
    2.5487   -6.3467    0.0000 C   0  0  0  0  0  0  0  0  0  0  0  0
    3.9821   -5.9046    0.0000 C   0  0  0  0  0  0  0  0  0  0  0  0
    1.4492   -5.3265    0.0000 O   0  0  0  0  0  0  0  0  0  0  0  0
   -2.1015   -2.6351    0.0000 C   0  0  0  0  0  0  0  0  0  0  0  0
   -3.0367   -3.8079    0.0000 C   0  0  0  0  0  0  0  0  0  0  0  0
   -3.0367   -1.4624    0.0000 C   0  0  0  0  0  0  0  0  0  0  0  0
   -4.3881   -2.1132    0.0000 O   0  0  0  0  0  0  0  0  0  0  0  0
   -5.6275   -1.2682    0.0000 C   0  0  0  0  0  0  0  0  0  0  0  0
   -5.5154    0.2276    0.0000 O   0  0  0  0  0  0  0  0  0  0  0  0
   -6.7548    1.0725    0.0000 C   0  0  0  0  0  0  0  0  0  0  0  0
   -6.6427    2.5684    0.0000 C   0  0  0  0  0  0  0  0  0  0  0  0
   -8.1062    0.4217    0.0000 C   0  0  0  0  0  0  0  0  0  0  0  0
   -8.2183   -1.0741    0.0000 C   0  0  0  0  0  0  0  0  0  0  0  0
   -9.5698   -1.7249    0.0000 N   0  0  0  0  0  0  0  0  0  0  0  0
  -10.8091   -0.8799    0.0000 C   0  0  0  0  0  0  0  0  0  0  0  0
   -9.6819   -3.2207    0.0000 C   0  0  0  0  0  0  0  0  0  0  0  0
   -6.9790   -1.9191    0.0000 C   0  0  0  0  0  0  0  0  0  0  0  0
   -7.0910   -3.4149    0.0000 O   0  0  0  0  0  0  0  0  0  0  0  0
   -3.3705    0.0000    0.0000 C   0  0  0  0  0  0  0  0  0  0  0  0
   -4.6098   -0.8450    0.0000 C   0  0  0  0  0  0  0  0  0  0  0  0
   -4.6098    0.8450    0.0000 O   0  0  0  0  0  0  0  0  0  0  0  0
   -3.0367    1.4624    0.0000 C   0  0  0  0  0  0  0  0  0  0  0  0
   -2.1015    2.6351    0.0000 C   0  0  0  0  0  0  0  0  0  0  0  0
   -3.0367    3.8079    0.0000 C   0  0  0  0  0  0  0  0  0  0  0  0
   -0.7500    3.2860    0.0000 C   0  0  0  0  0  0  0  0  0  0  0  0
   -1.0838    4.7484    0.0000 O   0  0  0  0  0  0  0  0  0  0  0  0
    0.7500    3.2860    0.0000 C   0  0  0  0  0  0  0  0  0  0  0  0
    1.0838    4.7484    0.0000 C   0  0  0  0  0  0  0  0  0  0  0  0
    2.1015    2.6351    0.0000 C   0  0  0  0  0  0  0  0  0  0  0  0
    3.0367    3.8079    0.0000 O   0  0  0  0  0  0  0  0  0  0  0  0
    3.0367    1.4624    0.0000 C   0  0  0  0  0  0  0  0  0  0  0  0
    3.7867    2.7614    0.0000 C   0  0  0  0  0  0  0  0  0  0  0  0
    4.5199    1.2388    0.0000 O   0  0  0  0  0  0  0  0  0  0  0  0
  1  2  1  0
  3  2  1  1
  3  4  1  0
  4  5  1  0
  5  6  2  0
  5  7  1  0
  7  8  1  6
  7  9  1  0
  9 10  1  1
 11 10  1  6
 11 12  1  0
 12 13  1  0
 13 14  1  1
 13 15  1  0
 15 16  1  0
 13 17  1  0
 17 18  1  6
 17 19  1  0
 19 20  1  1
 19 21  1  0
  9 22  1  0
 22 23  1  6
 22 24  1  0
 24 25  1  1
 26 25  1  1
 26 27  1  0
 27 28  1  0
 28 29  1  1
 28 30  1  0
 30 31  1  0
 31 32  1  1
 32 33  1  0
 32 34  1  0
 31 35  1  0
 35 36  1  6
 24 37  1  0
 37 38  1  1
 37 39  1  0
 37 40  1  0
 40 41  1  0
 41 42  1  1
 41 43  1  0
 43 44  2  0
 43 45  1  0
 45 46  1  6
 45 47  1  0
 47 48  1  1
 47 49  1  0
 49 50  1  1
 49 51  1  0
 49  3  1  0
 21 11  1  0
 35 26  1  0
M  END
>  <ChEMBL_IDs>  (291) 
CHEMBL1237043

>  <target_organism>  (291) 
nan

>  <target_molecule_pref_name>  (291) 
nan

>  <# Known Targets>  (291) 
nan

>  <Known Targets>  (291) 
nan

>  <smiles>  (291) 
CC[C@H]1OC(=O)[C@H](C)[C@@H](O[C@H]2C[C@@](C)(OC)[C@@H](C)[C@H](C)O2)[C@H](C)[C@@H](O[C@@H]2O[C@H](C)C[C@H](N(C)C)[C@H]2O)[C@](C)(O)C[C@@H](C)C(=O)[C@H](C)[C@@H](O)[C@]1(C)O

$$$$

     RDKit          2D

 51 53  0  0  0  0  0  0  0  0999 V2000
   10.3278   -2.5907    0.0000 C   0  0  0  0  0  0  0  0  0  0  0  0
    8.8352   -2.4413    0.0000 O   0  0  0  0  0  0  0  0  0  0  0  0
    8.2183   -1.0741    0.0000 C   0  0  0  0  0  0  0  0  0  0  0  0
    9.6719   -0.7039    0.0000 C   0  0  0  0  0  0  0  0  0  0  0  0
    6.9790   -1.9191    0.0000 C   0  0  0  0  0  0  0  0  0  0  0  0
    5.6275   -1.2682    0.0000 C   0  0  0  0  0  0  0  0  0  0  0  0
    4.3881   -2.1132    0.0000 O   0  0  0  0  0  0  0  0  0  0  0  0
    3.0367   -1.4624    0.0000 C   0  0  0  0  0  0  0  0  0  0  0  0
    3.3705    0.0000    0.0000 C   0  0  0  0  0  0  0  0  0  0  0  0
    4.6804    0.3267    0.0000 C   0  0  0  0  0  0  0  0  0  0  0  0
    3.0367    1.4624    0.0000 C   0  0  0  0  0  0  0  0  0  0  0  0
    4.3881    2.1132    0.0000 O   0  0  0  0  0  0  0  0  0  0  0  0
    2.1015    2.6351    0.0000 O   0  0  0  0  0  0  0  0  0  0  0  0
    0.7500    3.2860    0.0000 C   0  0  0  0  0  0  0  0  0  0  0  0
    1.0838    4.7484    0.0000 C   0  0  0  0  0  0  0  0  0  0  0  0
    2.5171    5.1905    0.0000 C   0  0  0  0  0  0  0  0  0  0  0  0
   -0.0158    5.7686    0.0000 C   0  0  0  0  0  0  0  0  0  0  0  0
   -0.7500    3.2860    0.0000 C   0  0  0  0  0  0  0  0  0  0  0  0
   -1.0838    4.7484    0.0000 C   0  0  0  0  0  0  0  0  0  0  0  0
   -2.1015    2.6351    0.0000 C   0  0  0  0  0  0  0  0  0  0  0  0
   -3.0367    3.8079    0.0000 O   0  0  0  0  0  0  0  0  0  0  0  0
   -3.0367    1.4624    0.0000 C   0  0  0  0  0  0  0  0  0  0  0  0
   -4.3881    2.1132    0.0000 C   0  0  0  0  0  0  0  0  0  0  0  0
   -3.3705    0.0000    0.0000 C   0  0  0  0  0  0  0  0  0  0  0  0
   -4.8705    0.0000    0.0000 O   0  0  0  0  0  0  0  0  0  0  0  0
   -3.0367   -1.4624    0.0000 C   0  0  0  0  0  0  0  0  0  0  0  0
   -4.3881   -2.1132    0.0000 C   0  0  0  0  0  0  0  0  0  0  0  0
   -2.1015   -2.6351    0.0000 C   0  0  0  0  0  0  0  0  0  0  0  0
   -0.7500   -3.2860    0.0000 C   0  0  0  0  0  0  0  0  0  0  0  0
   -0.2020   -4.6823    0.0000 C   0  0  0  0  0  0  0  0  0  0  0  0
   -1.8496   -4.3062    0.0000 O   0  0  0  0  0  0  0  0  0  0  0  0
    0.7500   -3.2860    0.0000 C   0  0  0  0  0  0  0  0  0  0  0  0
    1.0838   -4.7484    0.0000 O   0  0  0  0  0  0  0  0  0  0  0  0
   -0.0158   -5.7686    0.0000 C   0  0  0  0  0  0  0  0  0  0  0  0
   -1.4492   -5.3265    0.0000 O   0  0  0  0  0  0  0  0  0  0  0  0
   -2.5487   -6.3467    0.0000 C   0  0  0  0  0  0  0  0  0  0  0  0
   -3.9821   -5.9046    0.0000 C   0  0  0  0  0  0  0  0  0  0  0  0
   -2.2150   -7.8091    0.0000 C   0  0  0  0  0  0  0  0  0  0  0  0
   -0.7816   -8.2513    0.0000 C   0  0  0  0  0  0  0  0  0  0  0  0
   -0.4478   -9.7137    0.0000 N   0  0  0  0  0  0  0  0  0  0  0  0
   -1.5474  -10.7339    0.0000 C   0  0  0  0  0  0  0  0  0  0  0  0
    0.9855  -10.1558    0.0000 C   0  0  0  0  0  0  0  0  0  0  0  0
    0.3180   -7.2310    0.0000 C   0  0  0  0  0  0  0  0  0  0  0  0
    1.7513   -7.6731    0.0000 O   0  0  0  0  0  0  0  0  0  0  0  0
    2.1015   -2.6351    0.0000 C   0  0  0  0  0  0  0  0  0  0  0  0
    3.0367   -3.8079    0.0000 C   0  0  0  0  0  0  0  0  0  0  0  0
    5.5154    0.2276    0.0000 O   0  0  0  0  0  0  0  0  0  0  0  0
    6.7548    1.0725    0.0000 C   0  0  0  0  0  0  0  0  0  0  0  0
    6.6427    2.5684    0.0000 C   0  0  0  0  0  0  0  0  0  0  0  0
    8.1062    0.4217    0.0000 C   0  0  0  0  0  0  0  0  0  0  0  0
    9.3456    1.2667    0.0000 O   0  0  0  0  0  0  0  0  0  0  0  0
  1  2  1  0
  2  3  1  0
  3  4  1  0
  3  5  1  0
  5  6  1  0
  6  7  1  0
  7  8  1  0
  8  9  1  0
  9 10  1  0
  9 11  1  0
 11 12  2  0
 11 13  1  0
 13 14  1  0
 14 15  1  0
 15 16  1  0
 15 17  1  0
 14 18  1  0
 18 19  1  0
 18 20  1  0
 20 21  1  0
 20 22  1  0
 22 23  1  0
 22 24  1  0
 24 25  2  0
 24 26  1  0
 26 27  1  0
 26 28  1  0
 28 29  1  0
 29 30  1  0
 29 31  1  0
 29 32  1  0
 32 33  1  0
 33 34  1  0
 34 35  1  0
 35 36  1  0
 36 37  1  0
 36 38  1  0
 38 39  1  0
 39 40  1  0
 40 41  1  0
 40 42  1  0
 39 43  1  0
 43 44  1  0
 32 45  1  0
 45 46  1  0
  6 47  1  0
 47 48  1  0
 48 49  1  0
 48 50  1  0
 50 51  1  0
 50  3  1  0
 45  8  1  0
 43 34  1  0
M  END
>  <ChEMBL_IDs>  (292) 
nan

>  <target_organism>  (292) 
nan

>  <target_molecule_pref_name>  (292) 
nan

>  <# Known Targets>  (292) 
nan

>  <Known Targets>  (292) 
nan

>  <smiles>  (292) 
COC1(C)CC(OC2C(C)C(=O)OC(C(C)C)C(C)C(O)C(C)C(=O)C(C)CC(C)(O)C(OC3OC(C)CC(N(C)C)C3O)C2C)OC(C)C1O

$$$$

     RDKit          2D

 52 54  0  0  0  0  0  0  0  0999 V2000
   10.3278   -2.5907    0.0000 C   0  0  0  0  0  0  0  0  0  0  0  0
    8.8352   -2.4413    0.0000 O   0  0  0  0  0  0  0  0  0  0  0  0
    8.2183   -1.0741    0.0000 C   0  0  0  0  0  0  0  0  0  0  0  0
    9.6719   -0.7039    0.0000 C   0  0  0  0  0  0  0  0  0  0  0  0
    6.9790   -1.9191    0.0000 C   0  0  0  0  0  0  0  0  0  0  0  0
    5.6275   -1.2682    0.0000 C   0  0  0  0  0  0  0  0  0  0  0  0
    4.3881   -2.1132    0.0000 O   0  0  0  0  0  0  0  0  0  0  0  0
    3.0367   -1.4624    0.0000 C   0  0  0  0  0  0  0  0  0  0  0  0
    3.3705    0.0000    0.0000 C   0  0  0  0  0  0  0  0  0  0  0  0
    4.6804    0.3267    0.0000 C   0  0  0  0  0  0  0  0  0  0  0  0
    3.0367    1.4624    0.0000 C   0  0  0  0  0  0  0  0  0  0  0  0
    4.3881    2.1132    0.0000 O   0  0  0  0  0  0  0  0  0  0  0  0
    2.1015    2.6351    0.0000 O   0  0  0  0  0  0  0  0  0  0  0  0
    0.7500    3.2860    0.0000 C   0  0  0  0  0  0  0  0  0  0  0  0
    1.0838    4.7484    0.0000 C   0  0  0  0  0  0  0  0  0  0  0  0
    2.5171    5.1905    0.0000 C   0  0  0  0  0  0  0  0  0  0  0  0
   -0.0158    5.7686    0.0000 S   0  0  0  0  0  0  0  0  0  0  0  0
    0.3180    7.2310    0.0000 C   0  0  0  0  0  0  0  0  0  0  0  0
   -0.7500    3.2860    0.0000 C   0  0  0  0  0  0  0  0  0  0  0  0
   -1.0838    4.7484    0.0000 C   0  0  0  0  0  0  0  0  0  0  0  0
   -2.1015    2.6351    0.0000 C   0  0  0  0  0  0  0  0  0  0  0  0
   -3.0367    3.8079    0.0000 O   0  0  0  0  0  0  0  0  0  0  0  0
   -3.0367    1.4624    0.0000 C   0  0  0  0  0  0  0  0  0  0  0  0
   -4.3881    2.1132    0.0000 C   0  0  0  0  0  0  0  0  0  0  0  0
   -3.3705    0.0000    0.0000 C   0  0  0  0  0  0  0  0  0  0  0  0
   -4.8705    0.0000    0.0000 O   0  0  0  0  0  0  0  0  0  0  0  0
   -3.0367   -1.4624    0.0000 C   0  0  0  0  0  0  0  0  0  0  0  0
   -4.3881   -2.1132    0.0000 C   0  0  0  0  0  0  0  0  0  0  0  0
   -2.1015   -2.6351    0.0000 C   0  0  0  0  0  0  0  0  0  0  0  0
   -0.7500   -3.2860    0.0000 C   0  0  0  0  0  0  0  0  0  0  0  0
   -0.2020   -4.6823    0.0000 C   0  0  0  0  0  0  0  0  0  0  0  0
   -1.8496   -4.3062    0.0000 O   0  0  0  0  0  0  0  0  0  0  0  0
    0.7500   -3.2860    0.0000 C   0  0  0  0  0  0  0  0  0  0  0  0
    1.0838   -4.7484    0.0000 O   0  0  0  0  0  0  0  0  0  0  0  0
   -0.0158   -5.7686    0.0000 C   0  0  0  0  0  0  0  0  0  0  0  0
   -1.4492   -5.3265    0.0000 O   0  0  0  0  0  0  0  0  0  0  0  0
   -2.5487   -6.3467    0.0000 C   0  0  0  0  0  0  0  0  0  0  0  0
   -3.9821   -5.9046    0.0000 C   0  0  0  0  0  0  0  0  0  0  0  0
   -2.2150   -7.8091    0.0000 C   0  0  0  0  0  0  0  0  0  0  0  0
   -0.7816   -8.2513    0.0000 C   0  0  0  0  0  0  0  0  0  0  0  0
   -0.4478   -9.7137    0.0000 N   0  0  0  0  0  0  0  0  0  0  0  0
   -1.5474  -10.7339    0.0000 C   0  0  0  0  0  0  0  0  0  0  0  0
    0.9855  -10.1558    0.0000 C   0  0  0  0  0  0  0  0  0  0  0  0
    0.3180   -7.2310    0.0000 C   0  0  0  0  0  0  0  0  0  0  0  0
    1.7513   -7.6731    0.0000 O   0  0  0  0  0  0  0  0  0  0  0  0
    2.1015   -2.6351    0.0000 C   0  0  0  0  0  0  0  0  0  0  0  0
    3.0367   -3.8079    0.0000 C   0  0  0  0  0  0  0  0  0  0  0  0
    5.5154    0.2276    0.0000 O   0  0  0  0  0  0  0  0  0  0  0  0
    6.7548    1.0725    0.0000 C   0  0  0  0  0  0  0  0  0  0  0  0
    6.6427    2.5684    0.0000 C   0  0  0  0  0  0  0  0  0  0  0  0
    8.1062    0.4217    0.0000 C   0  0  0  0  0  0  0  0  0  0  0  0
    9.3456    1.2667    0.0000 O   0  0  0  0  0  0  0  0  0  0  0  0
  1  2  1  0
  2  3  1  0
  3  4  1  0
  3  5  1  0
  5  6  1  0
  6  7  1  0
  7  8  1  0
  8  9  1  0
  9 10  1  0
  9 11  1  0
 11 12  2  0
 11 13  1  0
 13 14  1  0
 14 15  1  0
 15 16  1  0
 15 17  1  0
 17 18  1  0
 14 19  1  0
 19 20  1  0
 19 21  1  0
 21 22  1  0
 21 23  1  0
 23 24  1  0
 23 25  1  0
 25 26  2  0
 25 27  1  0
 27 28  1  0
 27 29  1  0
 29 30  1  0
 30 31  1  0
 30 32  1  0
 30 33  1  0
 33 34  1  0
 34 35  1  0
 35 36  1  0
 36 37  1  0
 37 38  1  0
 37 39  1  0
 39 40  1  0
 40 41  1  0
 41 42  1  0
 41 43  1  0
 40 44  1  0
 44 45  1  0
 33 46  1  0
 46 47  1  0
  6 48  1  0
 48 49  1  0
 49 50  1  0
 49 51  1  0
 51 52  1  0
 51  3  1  0
 46  8  1  0
 44 35  1  0
M  END
>  <ChEMBL_IDs>  (293) 
nan

>  <target_organism>  (293) 
nan

>  <target_molecule_pref_name>  (293) 
nan

>  <# Known Targets>  (293) 
nan

>  <Known Targets>  (293) 
nan

>  <smiles>  (293) 
COC1(C)CC(OC2C(C)C(=O)OC(C(C)SC)C(C)C(O)C(C)C(=O)C(C)CC(C)(O)C(OC3OC(C)CC(N(C)C)C3O)C2C)OC(C)C1O

$$$$

     RDKit          2D

 52 54  0  0  0  0  0  0  0  0999 V2000
    5.6205   -1.2990    0.0000 C   0  0  0  0  0  0  0  0  0  0  0  0
    4.8705    0.0000    0.0000 C   0  0  0  0  0  0  0  0  0  0  0  0
    3.3705    0.0000    0.0000 C   0  0  0  0  0  0  0  0  0  0  0  0
    3.0367   -1.4624    0.0000 O   0  0  0  0  0  0  0  0  0  0  0  0
    2.1015   -2.6351    0.0000 C   0  0  0  0  0  0  0  0  0  0  0  0
    3.0367   -3.8079    0.0000 O   0  0  0  0  0  0  0  0  0  0  0  0
    0.7500   -3.2860    0.0000 C   0  0  0  0  0  0  0  0  0  0  0  0
    1.3600   -4.4903    0.0000 C   0  0  0  0  0  0  0  0  0  0  0  0
   -0.7500   -3.2860    0.0000 C   0  0  0  0  0  0  0  0  0  0  0  0
   -1.0838   -4.7484    0.0000 O   0  0  0  0  0  0  0  0  0  0  0  0
    0.0158   -5.7686    0.0000 C   0  0  0  0  0  0  0  0  0  0  0  0
   -0.3180   -7.2310    0.0000 C   0  0  0  0  0  0  0  0  0  0  0  0
    0.7816   -8.2513    0.0000 C   0  0  0  0  0  0  0  0  0  0  0  0
    1.4659   -9.5861    0.0000 C   0  0  0  0  0  0  0  0  0  0  0  0
   -0.4141   -9.1570    0.0000 O   0  0  0  0  0  0  0  0  0  0  0  0
   -0.2276  -10.6453    0.0000 C   0  0  0  0  0  0  0  0  0  0  0  0
    2.2150   -7.8091    0.0000 C   0  0  0  0  0  0  0  0  0  0  0  0
    3.3145   -8.8294    0.0000 O   0  0  0  0  0  0  0  0  0  0  0  0
    2.5487   -6.3467    0.0000 C   0  0  0  0  0  0  0  0  0  0  0  0
    3.9821   -5.9046    0.0000 C   0  0  0  0  0  0  0  0  0  0  0  0
    1.4492   -5.3265    0.0000 O   0  0  0  0  0  0  0  0  0  0  0  0
   -2.1015   -2.6351    0.0000 C   0  0  0  0  0  0  0  0  0  0  0  0
   -3.0367   -3.8079    0.0000 C   0  0  0  0  0  0  0  0  0  0  0  0
   -3.0367   -1.4624    0.0000 C   0  0  0  0  0  0  0  0  0  0  0  0
   -4.3881   -2.1132    0.0000 O   0  0  0  0  0  0  0  0  0  0  0  0
   -5.6275   -1.2682    0.0000 C   0  0  0  0  0  0  0  0  0  0  0  0
   -5.5154    0.2276    0.0000 O   0  0  0  0  0  0  0  0  0  0  0  0
   -6.7548    1.0725    0.0000 C   0  0  0  0  0  0  0  0  0  0  0  0
   -6.6427    2.5684    0.0000 C   0  0  0  0  0  0  0  0  0  0  0  0
   -8.1062    0.4217    0.0000 C   0  0  0  0  0  0  0  0  0  0  0  0
   -8.2183   -1.0741    0.0000 C   0  0  0  0  0  0  0  0  0  0  0  0
   -9.5698   -1.7249    0.0000 N   0  0  0  0  0  0  0  0  0  0  0  0
  -10.8091   -0.8799    0.0000 C   0  0  0  0  0  0  0  0  0  0  0  0
   -9.6819   -3.2207    0.0000 C   0  0  0  0  0  0  0  0  0  0  0  0
  -11.0333   -3.8715    0.0000 C   0  0  0  0  0  0  0  0  0  0  0  0
   -6.9790   -1.9191    0.0000 C   0  0  0  0  0  0  0  0  0  0  0  0
   -7.0910   -3.4149    0.0000 O   0  0  0  0  0  0  0  0  0  0  0  0
   -3.3705    0.0000    0.0000 C   0  0  0  0  0  0  0  0  0  0  0  0
   -4.6098   -0.8450    0.0000 C   0  0  0  0  0  0  0  0  0  0  0  0
   -4.6098    0.8450    0.0000 O   0  0  0  0  0  0  0  0  0  0  0  0
   -3.0367    1.4624    0.0000 C   0  0  0  0  0  0  0  0  0  0  0  0
   -2.1015    2.6351    0.0000 C   0  0  0  0  0  0  0  0  0  0  0  0
   -3.0367    3.8079    0.0000 C   0  0  0  0  0  0  0  0  0  0  0  0
   -0.7500    3.2860    0.0000 C   0  0  0  0  0  0  0  0  0  0  0  0
   -1.0838    4.7484    0.0000 O   0  0  0  0  0  0  0  0  0  0  0  0
    0.7500    3.2860    0.0000 C   0  0  0  0  0  0  0  0  0  0  0  0
    1.0838    4.7484    0.0000 C   0  0  0  0  0  0  0  0  0  0  0  0
    2.1015    2.6351    0.0000 C   0  0  0  0  0  0  0  0  0  0  0  0
    3.0367    3.8079    0.0000 O   0  0  0  0  0  0  0  0  0  0  0  0
    3.0367    1.4624    0.0000 C   0  0  0  0  0  0  0  0  0  0  0  0
    3.7867    2.7614    0.0000 C   0  0  0  0  0  0  0  0  0  0  0  0
    4.5199    1.2388    0.0000 O   0  0  0  0  0  0  0  0  0  0  0  0
  1  2  1  0
  3  2  1  1
  3  4  1  0
  4  5  1  0
  5  6  2  0
  5  7  1  0
  7  8  1  6
  7  9  1  0
  9 10  1  1
 11 10  1  6
 11 12  1  0
 12 13  1  0
 13 14  1  1
 13 15  1  0
 15 16  1  0
 13 17  1  0
 17 18  1  6
 17 19  1  0
 19 20  1  1
 19 21  1  0
  9 22  1  0
 22 23  1  6
 22 24  1  0
 24 25  1  1
 26 25  1  1
 26 27  1  0
 27 28  1  0
 28 29  1  1
 28 30  1  0
 30 31  1  0
 31 32  1  1
 32 33  1  0
 32 34  1  0
 34 35  1  0
 31 36  1  0
 36 37  1  6
 24 38  1  0
 38 39  1  1
 38 40  1  0
 38 41  1  0
 41 42  1  0
 42 43  1  1
 42 44  1  0
 44 45  2  0
 44 46  1  0
 46 47  1  6
 46 48  1  0
 48 49  1  1
 48 50  1  0
 50 51  1  1
 50 52  1  0
 50  3  1  0
 21 11  1  0
 36 26  1  0
M  END
>  <ChEMBL_IDs>  (294) 
nan

>  <target_organism>  (294) 
nan

>  <target_molecule_pref_name>  (294) 
nan

>  <# Known Targets>  (294) 
nan

>  <Known Targets>  (294) 
nan

>  <smiles>  (294) 
CC[C@H]1OC(=O)[C@H](C)[C@@H](O[C@H]2C[C@@](C)(OC)[C@@H](O)[C@H](C)O2)[C@H](C)[C@@H](O[C@@H]2O[C@H](C)C[C@H](N(C)CC)[C@H]2O)[C@](C)(O)C[C@@H](C)C(=O)[C@H](C)[C@@H](O)[C@]1(C)O

$$$$

     RDKit          2D

 52 54  0  0  0  0  0  0  0  0999 V2000
    5.6205   -1.2990    0.0000 C   0  0  0  0  0  0  0  0  0  0  0  0
    4.8705    0.0000    0.0000 C   0  0  0  0  0  0  0  0  0  0  0  0
    3.3705    0.0000    0.0000 C   0  0  0  0  0  0  0  0  0  0  0  0
    3.0367   -1.4624    0.0000 O   0  0  0  0  0  0  0  0  0  0  0  0
    2.1015   -2.6351    0.0000 C   0  0  0  0  0  0  0  0  0  0  0  0
    3.0367   -3.8079    0.0000 O   0  0  0  0  0  0  0  0  0  0  0  0
    0.7500   -3.2860    0.0000 C   0  0  0  0  0  0  0  0  0  0  0  0
    1.3600   -4.4903    0.0000 C   0  0  0  0  0  0  0  0  0  0  0  0
   -0.7500   -3.2860    0.0000 C   0  0  0  0  0  0  0  0  0  0  0  0
   -1.0838   -4.7484    0.0000 O   0  0  0  0  0  0  0  0  0  0  0  0
    0.0158   -5.7686    0.0000 C   0  0  0  0  0  0  0  0  0  0  0  0
   -0.3180   -7.2310    0.0000 C   0  0  0  0  0  0  0  0  0  0  0  0
    0.7816   -8.2513    0.0000 C   0  0  0  0  0  0  0  0  0  0  0  0
    1.4659   -9.5861    0.0000 C   0  0  0  0  0  0  0  0  0  0  0  0
   -0.4141   -9.1570    0.0000 O   0  0  0  0  0  0  0  0  0  0  0  0
   -0.2276  -10.6453    0.0000 C   0  0  0  0  0  0  0  0  0  0  0  0
    2.2150   -7.8091    0.0000 C   0  0  0  0  0  0  0  0  0  0  0  0
    3.3145   -8.8294    0.0000 O   0  0  0  0  0  0  0  0  0  0  0  0
    2.5487   -6.3467    0.0000 C   0  0  0  0  0  0  0  0  0  0  0  0
    3.9821   -5.9046    0.0000 C   0  0  0  0  0  0  0  0  0  0  0  0
    1.4492   -5.3265    0.0000 O   0  0  0  0  0  0  0  0  0  0  0  0
   -2.1015   -2.6351    0.0000 C   0  0  0  0  0  0  0  0  0  0  0  0
   -3.0367   -3.8079    0.0000 C   0  0  0  0  0  0  0  0  0  0  0  0
   -3.0367   -1.4624    0.0000 C   0  0  0  0  0  0  0  0  0  0  0  0
   -4.3881   -2.1132    0.0000 O   0  0  0  0  0  0  0  0  0  0  0  0
   -5.6275   -1.2682    0.0000 C   0  0  0  0  0  0  0  0  0  0  0  0
   -5.5154    0.2276    0.0000 O   0  0  0  0  0  0  0  0  0  0  0  0
   -6.7548    1.0725    0.0000 C   0  0  0  0  0  0  0  0  0  0  0  0
   -6.6427    2.5684    0.0000 C   0  0  0  0  0  0  0  0  0  0  0  0
   -8.1062    0.4217    0.0000 C   0  0  0  0  0  0  0  0  0  0  0  0
   -8.2183   -1.0741    0.0000 C   0  0  0  0  0  0  0  0  0  0  0  0
   -9.5698   -1.7249    0.0000 N   0  0  0  0  0  0  0  0  0  0  0  0
  -10.8091   -0.8799    0.0000 C   0  0  0  0  0  0  0  0  0  0  0  0
   -9.6819   -3.2207    0.0000 C   0  0  0  0  0  0  0  0  0  0  0  0
   -6.9790   -1.9191    0.0000 C   0  0  0  0  0  0  0  0  0  0  0  0
   -7.0910   -3.4149    0.0000 O   0  0  0  0  0  0  0  0  0  0  0  0
   -3.3705    0.0000    0.0000 C   0  0  0  0  0  0  0  0  0  0  0  0
   -4.6098   -0.8450    0.0000 C   0  0  0  0  0  0  0  0  0  0  0  0
   -4.6098    0.8450    0.0000 O   0  0  0  0  0  0  0  0  0  0  0  0
   -5.3904    0.6832    0.0000 C   0  0  0  0  0  0  0  0  0  0  0  0
   -3.0367    1.4624    0.0000 C   0  0  0  0  0  0  0  0  0  0  0  0
   -2.1015    2.6351    0.0000 C   0  0  0  0  0  0  0  0  0  0  0  0
   -3.0367    3.8079    0.0000 C   0  0  0  0  0  0  0  0  0  0  0  0
   -0.7500    3.2860    0.0000 C   0  0  0  0  0  0  0  0  0  0  0  0
   -1.0838    4.7484    0.0000 O   0  0  0  0  0  0  0  0  0  0  0  0
    0.7500    3.2860    0.0000 C   0  0  0  0  0  0  0  0  0  0  0  0
    1.0838    4.7484    0.0000 C   0  0  0  0  0  0  0  0  0  0  0  0
    2.1015    2.6351    0.0000 C   0  0  0  0  0  0  0  0  0  0  0  0
    3.0367    3.8079    0.0000 O   0  0  0  0  0  0  0  0  0  0  0  0
    3.0367    1.4624    0.0000 C   0  0  0  0  0  0  0  0  0  0  0  0
    3.7867    2.7614    0.0000 C   0  0  0  0  0  0  0  0  0  0  0  0
    4.5199    1.2388    0.0000 O   0  0  0  0  0  0  0  0  0  0  0  0
  1  2  1  0
  3  2  1  1
  3  4  1  0
  4  5  1  0
  5  6  2  0
  5  7  1  0
  7  8  1  6
  7  9  1  0
  9 10  1  6
 11 10  1  6
 11 12  1  0
 12 13  1  0
 13 14  1  1
 13 15  1  0
 15 16  1  0
 13 17  1  0
 17 18  1  6
 17 19  1  0
 19 20  1  1
 19 21  1  0
  9 22  1  0
 22 23  1  1
 22 24  1  0
 24 25  1  1
 26 25  1  1
 26 27  1  0
 27 28  1  0
 28 29  1  1
 28 30  1  0
 30 31  1  0
 31 32  1  1
 32 33  1  0
 32 34  1  0
 31 35  1  0
 35 36  1  6
 24 37  1  0
 37 38  1  6
 37 39  1  0
 39 40  1  0
 37 41  1  0
 41 42  1  0
 42 43  1  1
 42 44  1  0
 44 45  2  0
 44 46  1  0
 46 47  1  6
 46 48  1  0
 48 49  1  6
 48 50  1  0
 50 51  1  1
 50 52  1  0
 50  3  1  0
 21 11  1  0
 35 26  1  0
M  END
>  <ChEMBL_IDs>  (295) 
CHEMBL4091357

>  <target_organism>  (295) 
Hepatitis C virus,None

>  <target_molecule_pref_name>  (295) 
nan

>  <# Known Targets>  (295) 
nan

>  <Known Targets>  (295) 
nan

>  <smiles>  (295) 
CC[C@H]1OC(=O)[C@H](C)[C@H](O[C@H]2C[C@@](C)(OC)[C@@H](O)[C@H](C)O2)[C@@H](C)[C@@H](O[C@@H]2O[C@H](C)C[C@H](N(C)C)[C@H]2O)[C@@](C)(OC)C[C@@H](C)C(=O)[C@H](C)[C@H](O)[C@]1(C)O

$$$$

     RDKit          2D

 52 54  0  0  0  0  0  0  0  0999 V2000
    5.6205   -1.2990    0.0000 C   0  0  0  0  0  0  0  0  0  0  0  0
    4.8705    0.0000    0.0000 C   0  0  0  0  0  0  0  0  0  0  0  0
    3.3705    0.0000    0.0000 C   0  0  0  0  0  0  0  0  0  0  0  0
    3.0367   -1.4624    0.0000 O   0  0  0  0  0  0  0  0  0  0  0  0
    2.1015   -2.6351    0.0000 C   0  0  0  0  0  0  0  0  0  0  0  0
    3.0367   -3.8079    0.0000 O   0  0  0  0  0  0  0  0  0  0  0  0
    0.7500   -3.2860    0.0000 C   0  0  0  0  0  0  0  0  0  0  0  0
    1.3600   -4.4903    0.0000 C   0  0  0  0  0  0  0  0  0  0  0  0
   -0.7500   -3.2860    0.0000 C   0  0  0  0  0  0  0  0  0  0  0  0
   -1.0838   -4.7484    0.0000 O   0  0  0  0  0  0  0  0  0  0  0  0
    0.0158   -5.7686    0.0000 C   0  0  0  0  0  0  0  0  0  0  0  0
   -0.3180   -7.2310    0.0000 C   0  0  0  0  0  0  0  0  0  0  0  0
    0.7816   -8.2513    0.0000 C   0  0  0  0  0  0  0  0  0  0  0  0
    1.4659   -9.5861    0.0000 C   0  0  0  0  0  0  0  0  0  0  0  0
   -0.4141   -9.1570    0.0000 O   0  0  0  0  0  0  0  0  0  0  0  0
   -0.2276  -10.6453    0.0000 C   0  0  0  0  0  0  0  0  0  0  0  0
    2.2150   -7.8091    0.0000 C   0  0  0  0  0  0  0  0  0  0  0  0
    3.3145   -8.8294    0.0000 O   0  0  0  0  0  0  0  0  0  0  0  0
    2.5487   -6.3467    0.0000 C   0  0  0  0  0  0  0  0  0  0  0  0
    3.9821   -5.9046    0.0000 C   0  0  0  0  0  0  0  0  0  0  0  0
    1.4492   -5.3265    0.0000 O   0  0  0  0  0  0  0  0  0  0  0  0
   -2.1015   -2.6351    0.0000 C   0  0  0  0  0  0  0  0  0  0  0  0
   -3.0367   -3.8079    0.0000 C   0  0  0  0  0  0  0  0  0  0  0  0
   -3.0367   -1.4624    0.0000 C   0  0  0  0  0  0  0  0  0  0  0  0
   -4.3881   -2.1132    0.0000 O   0  0  0  0  0  0  0  0  0  0  0  0
   -5.6275   -1.2682    0.0000 C   0  0  0  0  0  0  0  0  0  0  0  0
   -5.5154    0.2276    0.0000 O   0  0  0  0  0  0  0  0  0  0  0  0
   -6.7548    1.0725    0.0000 C   0  0  0  0  0  0  0  0  0  0  0  0
   -6.6427    2.5684    0.0000 C   0  0  0  0  0  0  0  0  0  0  0  0
   -8.1062    0.4217    0.0000 C   0  0  0  0  0  0  0  0  0  0  0  0
   -8.2183   -1.0741    0.0000 C   0  0  0  0  0  0  0  0  0  0  0  0
   -9.5698   -1.7249    0.0000 N   0  0  0  0  0  0  0  0  0  0  0  0
  -10.8091   -0.8799    0.0000 C   0  0  0  0  0  0  0  0  0  0  0  0
   -9.6819   -3.2207    0.0000 C   0  0  0  0  0  0  0  0  0  0  0  0
   -6.9790   -1.9191    0.0000 C   0  0  0  0  0  0  0  0  0  0  0  0
   -7.0910   -3.4149    0.0000 O   0  0  0  0  0  0  0  0  0  0  0  0
   -3.3705    0.0000    0.0000 C   0  0  0  0  0  0  0  0  0  0  0  0
   -4.6098   -0.8450    0.0000 C   0  0  0  0  0  0  0  0  0  0  0  0
   -4.6098    0.8450    0.0000 O   0  0  0  0  0  0  0  0  0  0  0  0
   -5.3904    0.6832    0.0000 C   0  0  0  0  0  0  0  0  0  0  0  0
   -3.0367    1.4624    0.0000 C   0  0  0  0  0  0  0  0  0  0  0  0
   -2.1015    2.6351    0.0000 C   0  0  0  0  0  0  0  0  0  0  0  0
   -3.0367    3.8079    0.0000 C   0  0  0  0  0  0  0  0  0  0  0  0
   -0.7500    3.2860    0.0000 C   0  0  0  0  0  0  0  0  0  0  0  0
   -1.0838    4.7484    0.0000 O   0  0  0  0  0  0  0  0  0  0  0  0
    0.7500    3.2860    0.0000 C   0  0  0  0  0  0  0  0  0  0  0  0
    1.0838    4.7484    0.0000 C   0  0  0  0  0  0  0  0  0  0  0  0
    2.1015    2.6351    0.0000 C   0  0  0  0  0  0  0  0  0  0  0  0
    3.0367    3.8079    0.0000 O   0  0  0  0  0  0  0  0  0  0  0  0
    3.0367    1.4624    0.0000 C   0  0  0  0  0  0  0  0  0  0  0  0
    3.7867    2.7614    0.0000 C   0  0  0  0  0  0  0  0  0  0  0  0
    4.5199    1.2388    0.0000 O   0  0  0  0  0  0  0  0  0  0  0  0
  1  2  1  0
  3  2  1  6
  3  4  1  0
  4  5  1  0
  5  6  2  0
  5  7  1  0
  7  8  1  1
  7  9  1  0
  9 10  1  6
 11 10  1  1
 11 12  1  0
 12 13  1  0
 13 14  1  6
 13 15  1  0
 15 16  1  0
 13 17  1  0
 17 18  1  1
 17 19  1  0
 19 20  1  6
 19 21  1  0
  9 22  1  0
 22 23  1  0
 22 24  1  0
 24 25  1  6
 26 25  1  6
 26 27  1  0
 27 28  1  0
 28 29  1  6
 28 30  1  0
 30 31  1  0
 31 32  1  6
 32 33  1  0
 32 34  1  0
 31 35  1  0
 35 36  1  1
 24 37  1  0
 37 38  1  6
 37 39  1  0
 39 40  1  0
 37 41  1  0
 41 42  1  0
 42 43  1  6
 42 44  1  0
 44 45  2  0
 44 46  1  0
 46 47  1  1
 46 48  1  0
 48 49  1  6
 48 50  1  0
 50 51  1  6
 50 52  1  0
 50  3  1  0
 21 11  1  0
 35 26  1  0
M  END
>  <ChEMBL_IDs>  (296) 
CHEMBL3937847

>  <target_organism>  (296) 
Hepatitis C virus,None

>  <target_molecule_pref_name>  (296) 
nan

>  <# Known Targets>  (296) 
nan

>  <Known Targets>  (296) 
nan

>  <smiles>  (296) 
CC[C@@H]1OC(=O)[C@@H](C)[C@H](O[C@@H]2C[C@](C)(OC)[C@H](O)[C@@H](C)O2)C(C)[C@H](O[C@H]2O[C@@H](C)C[C@@H](N(C)C)[C@@H]2O)[C@@](C)(OC)C[C@H](C)C(=O)[C@@H](C)[C@H](O)[C@@]1(C)O

$$$$

     RDKit          2D

 52 54  0  0  0  0  0  0  0  0999 V2000
    5.6205   -1.2990    0.0000 C   0  0  0  0  0  0  0  0  0  0  0  0
    4.8705    0.0000    0.0000 C   0  0  0  0  0  0  0  0  0  0  0  0
    3.3705    0.0000    0.0000 C   0  0  0  0  0  0  0  0  0  0  0  0
    3.0367   -1.4624    0.0000 O   0  0  0  0  0  0  0  0  0  0  0  0
    2.1015   -2.6351    0.0000 C   0  0  0  0  0  0  0  0  0  0  0  0
    3.0367   -3.8079    0.0000 O   0  0  0  0  0  0  0  0  0  0  0  0
    0.7500   -3.2860    0.0000 C   0  0  0  0  0  0  0  0  0  0  0  0
    1.3600   -4.4903    0.0000 C   0  0  0  0  0  0  0  0  0  0  0  0
   -0.7500   -3.2860    0.0000 C   0  0  0  0  0  0  0  0  0  0  0  0
   -1.0838   -4.7484    0.0000 O   0  0  0  0  0  0  0  0  0  0  0  0
    0.0158   -5.7686    0.0000 C   0  0  0  0  0  0  0  0  0  0  0  0
   -0.3180   -7.2310    0.0000 C   0  0  0  0  0  0  0  0  0  0  0  0
    0.7816   -8.2513    0.0000 C   0  0  0  0  0  0  0  0  0  0  0  0
    1.4659   -9.5861    0.0000 C   0  0  0  0  0  0  0  0  0  0  0  0
   -0.4141   -9.1570    0.0000 O   0  0  0  0  0  0  0  0  0  0  0  0
   -0.2276  -10.6453    0.0000 C   0  0  0  0  0  0  0  0  0  0  0  0
    2.2150   -7.8091    0.0000 C   0  0  0  0  0  0  0  0  0  0  0  0
    3.3145   -8.8294    0.0000 O   0  0  0  0  0  0  0  0  0  0  0  0
    2.5487   -6.3467    0.0000 C   0  0  0  0  0  0  0  0  0  0  0  0
    3.9821   -5.9046    0.0000 C   0  0  0  0  0  0  0  0  0  0  0  0
    1.4492   -5.3265    0.0000 O   0  0  0  0  0  0  0  0  0  0  0  0
   -2.1015   -2.6351    0.0000 C   0  0  0  0  0  0  0  0  0  0  0  0
   -3.0367   -3.8079    0.0000 C   0  0  0  0  0  0  0  0  0  0  0  0
   -3.0367   -1.4624    0.0000 C   0  0  0  0  0  0  0  0  0  0  0  0
   -4.3881   -2.1132    0.0000 O   0  0  0  0  0  0  0  0  0  0  0  0
   -5.6275   -1.2682    0.0000 C   0  0  0  0  0  0  0  0  0  0  0  0
   -5.5154    0.2276    0.0000 O   0  0  0  0  0  0  0  0  0  0  0  0
   -6.7548    1.0725    0.0000 C   0  0  0  0  0  0  0  0  0  0  0  0
   -6.6427    2.5684    0.0000 C   0  0  0  0  0  0  0  0  0  0  0  0
   -8.1062    0.4217    0.0000 C   0  0  0  0  0  0  0  0  0  0  0  0
   -8.2183   -1.0741    0.0000 C   0  0  0  0  0  0  0  0  0  0  0  0
   -9.5698   -1.7249    0.0000 N   0  0  0  0  0  0  0  0  0  0  0  0
  -10.8091   -0.8799    0.0000 C   0  0  0  0  0  0  0  0  0  0  0  0
   -9.6819   -3.2207    0.0000 C   0  0  0  0  0  0  0  0  0  0  0  0
   -6.9790   -1.9191    0.0000 C   0  0  0  0  0  0  0  0  0  0  0  0
   -7.0910   -3.4149    0.0000 O   0  0  0  0  0  0  0  0  0  0  0  0
   -3.3705    0.0000    0.0000 C   0  0  0  0  0  0  0  0  0  0  0  0
   -4.6098   -0.8450    0.0000 C   0  0  0  0  0  0  0  0  0  0  0  0
   -4.6098    0.8450    0.0000 O   0  0  0  0  0  0  0  0  0  0  0  0
   -5.3904    0.6832    0.0000 C   0  0  0  0  0  0  0  0  0  0  0  0
   -3.0367    1.4624    0.0000 C   0  0  0  0  0  0  0  0  0  0  0  0
   -2.1015    2.6351    0.0000 C   0  0  0  0  0  0  0  0  0  0  0  0
   -3.0367    3.8079    0.0000 C   0  0  0  0  0  0  0  0  0  0  0  0
   -0.7500    3.2860    0.0000 C   0  0  0  0  0  0  0  0  0  0  0  0
   -1.0838    4.7484    0.0000 O   0  0  0  0  0  0  0  0  0  0  0  0
    0.7500    3.2860    0.0000 C   0  0  0  0  0  0  0  0  0  0  0  0
    1.0838    4.7484    0.0000 C   0  0  0  0  0  0  0  0  0  0  0  0
    2.1015    2.6351    0.0000 C   0  0  0  0  0  0  0  0  0  0  0  0
    3.0367    3.8079    0.0000 O   0  0  0  0  0  0  0  0  0  0  0  0
    3.0367    1.4624    0.0000 C   0  0  0  0  0  0  0  0  0  0  0  0
    3.7867    2.7614    0.0000 C   0  0  0  0  0  0  0  0  0  0  0  0
    4.5199    1.2388    0.0000 O   0  0  0  0  0  0  0  0  0  0  0  0
  1  2  1  0
  3  2  1  1
  3  4  1  0
  4  5  1  0
  5  6  2  0
  5  7  1  0
  7  8  1  6
  7  9  1  0
  9 10  1  1
 11 10  1  6
 11 12  1  0
 12 13  1  0
 13 14  1  1
 13 15  1  0
 15 16  1  0
 13 17  1  0
 17 18  1  6
 17 19  1  0
 19 20  1  1
 19 21  1  0
  9 22  1  0
 22 23  1  0
 22 24  1  0
 24 25  1  1
 26 25  1  1
 26 27  1  0
 27 28  1  0
 28 29  1  1
 28 30  1  0
 30 31  1  0
 31 32  1  1
 32 33  1  0
 32 34  1  0
 31 35  1  0
 35 36  1  6
 24 37  1  0
 37 38  1  1
 37 39  1  0
 39 40  1  0
 37 41  1  0
 41 42  1  0
 42 43  1  1
 42 44  1  0
 44 45  2  0
 44 46  1  0
 46 47  1  6
 46 48  1  0
 48 49  1  1
 48 50  1  0
 50 51  1  1
 50 52  1  0
 50  3  1  0
 21 11  1  0
 35 26  1  0
M  END
>  <ChEMBL_IDs>  (297) 
CHEMBL3184688

>  <target_organism>  (297) 
None

>  <target_molecule_pref_name>  (297) 
nan

>  <# Known Targets>  (297) 
nan

>  <Known Targets>  (297) 
nan

>  <smiles>  (297) 
CC[C@H]1OC(=O)[C@H](C)[C@@H](O[C@H]2C[C@@](C)(OC)[C@@H](O)[C@H](C)O2)C(C)[C@@H](O[C@@H]2O[C@H](C)C[C@H](N(C)C)[C@H]2O)[C@](C)(OC)C[C@@H](C)C(=O)[C@H](C)[C@@H](O)[C@]1(C)O

$$$$

     RDKit          2D

 52 54  0  0  0  0  0  0  0  0999 V2000
    5.6205   -1.2990    0.0000 C   0  0  0  0  0  0  0  0  0  0  0  0
    4.8705    0.0000    0.0000 C   0  0  0  0  0  0  0  0  0  0  0  0
    3.3705    0.0000    0.0000 C   0  0  0  0  0  0  0  0  0  0  0  0
    3.0367   -1.4624    0.0000 O   0  0  0  0  0  0  0  0  0  0  0  0
    2.1015   -2.6351    0.0000 C   0  0  0  0  0  0  0  0  0  0  0  0
    3.0367   -3.8079    0.0000 O   0  0  0  0  0  0  0  0  0  0  0  0
    0.7500   -3.2860    0.0000 C   0  0  0  0  0  0  0  0  0  0  0  0
    1.3600   -4.4903    0.0000 C   0  0  0  0  0  0  0  0  0  0  0  0
   -0.7500   -3.2860    0.0000 C   0  0  0  0  0  0  0  0  0  0  0  0
   -1.0838   -4.7484    0.0000 O   0  0  0  0  0  0  0  0  0  0  0  0
    0.0158   -5.7686    0.0000 C   0  0  0  0  0  0  0  0  0  0  0  0
   -0.3180   -7.2310    0.0000 C   0  0  0  0  0  0  0  0  0  0  0  0
    0.7816   -8.2513    0.0000 C   0  0  0  0  0  0  0  0  0  0  0  0
    1.4659   -9.5861    0.0000 C   0  0  0  0  0  0  0  0  0  0  0  0
   -0.4141   -9.1570    0.0000 O   0  0  0  0  0  0  0  0  0  0  0  0
   -0.2276  -10.6453    0.0000 C   0  0  0  0  0  0  0  0  0  0  0  0
    2.2150   -7.8091    0.0000 C   0  0  0  0  0  0  0  0  0  0  0  0
    3.3145   -8.8294    0.0000 O   0  0  0  0  0  0  0  0  0  0  0  0
    2.5487   -6.3467    0.0000 C   0  0  0  0  0  0  0  0  0  0  0  0
    3.9821   -5.9046    0.0000 C   0  0  0  0  0  0  0  0  0  0  0  0
    1.4492   -5.3265    0.0000 O   0  0  0  0  0  0  0  0  0  0  0  0
   -2.1015   -2.6351    0.0000 C   0  0  0  0  0  0  0  0  0  0  0  0
   -3.0367   -3.8079    0.0000 C   0  0  0  0  0  0  0  0  0  0  0  0
   -3.0367   -1.4624    0.0000 C   0  0  0  0  0  0  0  0  0  0  0  0
   -4.3881   -2.1132    0.0000 O   0  0  0  0  0  0  0  0  0  0  0  0
   -5.6275   -1.2682    0.0000 C   0  0  0  0  0  0  0  0  0  0  0  0
   -5.5154    0.2276    0.0000 O   0  0  0  0  0  0  0  0  0  0  0  0
   -6.7548    1.0725    0.0000 C   0  0  0  0  0  0  0  0  0  0  0  0
   -6.6427    2.5684    0.0000 C   0  0  0  0  0  0  0  0  0  0  0  0
   -8.1062    0.4217    0.0000 C   0  0  0  0  0  0  0  0  0  0  0  0
   -8.2183   -1.0741    0.0000 C   0  0  0  0  0  0  0  0  0  0  0  0
   -9.5698   -1.7249    0.0000 N   0  0  0  0  0  0  0  0  0  0  0  0
  -10.8091   -0.8799    0.0000 C   0  0  0  0  0  0  0  0  0  0  0  0
   -9.6819   -3.2207    0.0000 C   0  0  0  0  0  0  0  0  0  0  0  0
   -6.9790   -1.9191    0.0000 C   0  0  0  0  0  0  0  0  0  0  0  0
   -7.0910   -3.4149    0.0000 O   0  0  0  0  0  0  0  0  0  0  0  0
   -3.3705    0.0000    0.0000 C   0  0  0  0  0  0  0  0  0  0  0  0
   -4.6098   -0.8450    0.0000 C   0  0  0  0  0  0  0  0  0  0  0  0
   -4.6098    0.8450    0.0000 O   0  0  0  0  0  0  0  0  0  0  0  0
   -5.3904    0.6832    0.0000 C   0  0  0  0  0  0  0  0  0  0  0  0
   -3.0367    1.4624    0.0000 C   0  0  0  0  0  0  0  0  0  0  0  0
   -2.1015    2.6351    0.0000 C   0  0  0  0  0  0  0  0  0  0  0  0
   -3.0367    3.8079    0.0000 C   0  0  0  0  0  0  0  0  0  0  0  0
   -0.7500    3.2860    0.0000 C   0  0  0  0  0  0  0  0  0  0  0  0
   -1.0838    4.7484    0.0000 O   0  0  0  0  0  0  0  0  0  0  0  0
    0.7500    3.2860    0.0000 C   0  0  0  0  0  0  0  0  0  0  0  0
    1.0838    4.7484    0.0000 C   0  0  0  0  0  0  0  0  0  0  0  0
    2.1015    2.6351    0.0000 C   0  0  0  0  0  0  0  0  0  0  0  0
    3.0367    3.8079    0.0000 O   0  0  0  0  0  0  0  0  0  0  0  0
    3.0367    1.4624    0.0000 C   0  0  0  0  0  0  0  0  0  0  0  0
    3.7867    2.7614    0.0000 C   0  0  0  0  0  0  0  0  0  0  0  0
    4.5199    1.2388    0.0000 O   0  0  0  0  0  0  0  0  0  0  0  0
  1  2  1  0
  3  2  1  1
  3  4  1  0
  4  5  1  0
  5  6  2  0
  5  7  1  0
  7  8  1  6
  7  9  1  0
  9 10  1  1
 10 11  1  0
 11 12  1  0
 12 13  1  0
 13 14  1  0
 13 15  1  0
 15 16  1  0
 13 17  1  0
 17 18  1  0
 17 19  1  0
 19 20  1  0
 19 21  1  0
  9 22  1  0
 22 23  1  6
 22 24  1  0
 24 25  1  1
 25 26  1  0
 26 27  1  0
 27 28  1  0
 28 29  1  0
 28 30  1  0
 30 31  1  0
 31 32  1  0
 32 33  1  0
 32 34  1  0
 31 35  1  0
 35 36  1  0
 24 37  1  0
 37 38  1  1
 37 39  1  0
 39 40  1  0
 37 41  1  0
 41 42  1  0
 42 43  1  1
 42 44  1  0
 44 45  2  0
 44 46  1  0
 46 47  1  6
 46 48  1  0
 48 49  1  1
 48 50  1  0
 50 51  1  1
 50 52  1  0
 50  3  1  0
 21 11  1  0
 35 26  1  0
M  END
>  <ChEMBL_IDs>  (298) 
nan

>  <target_organism>  (298) 
nan

>  <target_molecule_pref_name>  (298) 
nan

>  <# Known Targets>  (298) 
nan

>  <Known Targets>  (298) 
nan

>  <smiles>  (298) 
CC[C@H]1OC(=O)[C@H](C)[C@@H](OC2CC(C)(OC)C(O)C(C)O2)[C@H](C)[C@@H](OC2OC(C)CC(N(C)C)C2O)[C@](C)(OC)C[C@@H](C)C(=O)[C@H](C)[C@@H](O)[C@]1(C)O

$$$$

     RDKit          2D

 53 55  0  0  0  0  0  0  0  0999 V2000
    5.6205   -1.2990    0.0000 C   0  0  0  0  0  0  0  0  0  0  0  0
    4.8705    0.0000    0.0000 C   0  0  0  0  0  0  0  0  0  0  0  0
    3.3705    0.0000    0.0000 C   0  0  0  0  0  0  0  0  0  0  0  0
    3.0367   -1.4624    0.0000 O   0  0  0  0  0  0  0  0  0  0  0  0
    2.1015   -2.6351    0.0000 C   0  0  0  0  0  0  0  0  0  0  0  0
    3.0367   -3.8079    0.0000 O   0  0  0  0  0  0  0  0  0  0  0  0
    0.7500   -3.2860    0.0000 C   0  0  0  0  0  0  0  0  0  0  0  0
    1.3600   -4.4903    0.0000 C   0  0  0  0  0  0  0  0  0  0  0  0
   -0.7500   -3.2860    0.0000 C   0  0  0  0  0  0  0  0  0  0  0  0
   -1.0838   -4.7484    0.0000 O   0  0  0  0  0  0  0  0  0  0  0  0
    0.0158   -5.7686    0.0000 C   0  0  0  0  0  0  0  0  0  0  0  0
   -0.3180   -7.2310    0.0000 C   0  0  0  0  0  0  0  0  0  0  0  0
    0.7816   -8.2513    0.0000 C   0  0  0  0  0  0  0  0  0  0  0  0
    1.4659   -9.5861    0.0000 C   0  0  0  0  0  0  0  0  0  0  0  0
   -0.4141   -9.1570    0.0000 O   0  0  0  0  0  0  0  0  0  0  0  0
   -0.2276  -10.6453    0.0000 C   0  0  0  0  0  0  0  0  0  0  0  0
    2.2150   -7.8091    0.0000 C   0  0  0  0  0  0  0  0  0  0  0  0
    3.3145   -8.8294    0.0000 O   0  0  0  0  0  0  0  0  0  0  0  0
    2.5487   -6.3467    0.0000 C   0  0  0  0  0  0  0  0  0  0  0  0
    3.9821   -5.9046    0.0000 C   0  0  0  0  0  0  0  0  0  0  0  0
    1.4492   -5.3265    0.0000 O   0  0  0  0  0  0  0  0  0  0  0  0
   -2.1015   -2.6351    0.0000 C   0  0  0  0  0  0  0  0  0  0  0  0
   -3.0367   -3.8079    0.0000 C   0  0  0  0  0  0  0  0  0  0  0  0
   -3.0367   -1.4624    0.0000 C   0  0  0  0  0  0  0  0  0  0  0  0
   -4.3881   -2.1132    0.0000 O   0  0  0  0  0  0  0  0  0  0  0  0
   -5.6275   -1.2682    0.0000 C   0  0  0  0  0  0  0  0  0  0  0  0
   -5.5154    0.2276    0.0000 O   0  0  0  0  0  0  0  0  0  0  0  0
   -6.7548    1.0725    0.0000 C   0  0  0  0  0  0  0  0  0  0  0  0
   -6.6427    2.5684    0.0000 C   0  0  0  0  0  0  0  0  0  0  0  0
   -8.1062    0.4217    0.0000 C   0  0  0  0  0  0  0  0  0  0  0  0
   -8.2183   -1.0741    0.0000 C   0  0  0  0  0  0  0  0  0  0  0  0
   -9.5698   -1.7249    0.0000 N   0  0  0  0  0  0  0  0  0  0  0  0
  -10.8091   -0.8799    0.0000 C   0  0  0  0  0  0  0  0  0  0  0  0
   -9.6819   -3.2207    0.0000 C   0  0  0  0  0  0  0  0  0  0  0  0
  -11.0333   -3.8715    0.0000 C   0  0  0  0  0  0  0  0  0  0  0  0
   -8.4425   -4.0657    0.0000 O   0  0  0  0  0  0  0  0  0  0  0  0
   -6.9790   -1.9191    0.0000 C   0  0  0  0  0  0  0  0  0  0  0  0
   -7.0910   -3.4149    0.0000 O   0  0  0  0  0  0  0  0  0  0  0  0
   -3.3705    0.0000    0.0000 C   0  0  0  0  0  0  0  0  0  0  0  0
   -4.6098   -0.8450    0.0000 C   0  0  0  0  0  0  0  0  0  0  0  0
   -4.6098    0.8450    0.0000 O   0  0  0  0  0  0  0  0  0  0  0  0
   -3.0367    1.4624    0.0000 C   0  0  0  0  0  0  0  0  0  0  0  0
   -2.1015    2.6351    0.0000 C   0  0  0  0  0  0  0  0  0  0  0  0
   -3.0367    3.8079    0.0000 C   0  0  0  0  0  0  0  0  0  0  0  0
   -0.7500    3.2860    0.0000 C   0  0  0  0  0  0  0  0  0  0  0  0
   -1.0838    4.7484    0.0000 O   0  0  0  0  0  0  0  0  0  0  0  0
    0.7500    3.2860    0.0000 C   0  0  0  0  0  0  0  0  0  0  0  0
    1.0838    4.7484    0.0000 C   0  0  0  0  0  0  0  0  0  0  0  0
    2.1015    2.6351    0.0000 C   0  0  0  0  0  0  0  0  0  0  0  0
    3.0367    3.8079    0.0000 O   0  0  0  0  0  0  0  0  0  0  0  0
    3.0367    1.4624    0.0000 C   0  0  0  0  0  0  0  0  0  0  0  0
    3.7867    2.7614    0.0000 C   0  0  0  0  0  0  0  0  0  0  0  0
    4.5199    1.2388    0.0000 O   0  0  0  0  0  0  0  0  0  0  0  0
  1  2  1  0
  3  2  1  1
  3  4  1  0
  4  5  1  0
  5  6  2  0
  5  7  1  0
  7  8  1  6
  7  9  1  0
  9 10  1  1
 11 10  1  6
 11 12  1  0
 12 13  1  0
 13 14  1  1
 13 15  1  0
 15 16  1  0
 13 17  1  0
 17 18  1  6
 17 19  1  0
 19 20  1  1
 19 21  1  0
  9 22  1  0
 22 23  1  6
 22 24  1  0
 24 25  1  1
 26 25  1  6
 26 27  1  0
 27 28  1  0
 28 29  1  6
 28 30  1  0
 30 31  1  0
 31 32  1  6
 32 33  1  0
 32 34  1  0
 34 35  1  0
 34 36  2  0
 31 37  1  0
 37 38  1  1
 24 39  1  0
 39 40  1  1
 39 41  1  0
 39 42  1  0
 42 43  1  0
 43 44  1  1
 43 45  1  0
 45 46  1  6
 45 47  1  0
 47 48  1  6
 47 49  1  0
 49 50  1  1
 49 51  1  0
 51 52  1  1
 51 53  1  0
 51  3  1  0
 21 11  1  0
 37 26  1  0
M  END
>  <ChEMBL_IDs>  (299) 
CHEMBL449097

>  <target_organism>  (299) 
Rattus norvegicus

>  <target_molecule_pref_name>  (299) 
nan

>  <# Known Targets>  (299) 
nan

>  <Known Targets>  (299) 
nan

>  <smiles>  (299) 
CC[C@H]1OC(=O)[C@H](C)[C@@H](O[C@H]2C[C@@](C)(OC)[C@@H](O)[C@H](C)O2)[C@H](C)[C@@H](O[C@H]2O[C@@H](C)C[C@@H](N(C)C(C)=O)[C@@H]2O)[C@](C)(O)C[C@@H](C)[C@H](O)[C@H](C)[C@@H](O)[C@]1(C)O

$$$$

     RDKit          2D

 53 55  0  0  0  0  0  0  0  0999 V2000
    5.9613    0.1942    0.0000 C   0  0  0  0  0  0  0  0  0  0  0  0
    4.6098    0.8450    0.0000 C   0  0  0  0  0  0  0  0  0  0  0  0
    3.3705    0.0000    0.0000 C   0  0  0  0  0  0  0  0  0  0  0  0
    4.6098   -0.8450    0.0000 O   0  0  0  0  0  0  0  0  0  0  0  0
    3.0367   -1.4624    0.0000 O   0  0  0  0  0  0  0  0  0  0  0  0
    2.1015   -2.6351    0.0000 C   0  0  0  0  0  0  0  0  0  0  0  0
    3.0367   -3.8079    0.0000 O   0  0  0  0  0  0  0  0  0  0  0  0
    0.7500   -3.2860    0.0000 C   0  0  0  0  0  0  0  0  0  0  0  0
    1.3600   -4.4903    0.0000 C   0  0  0  0  0  0  0  0  0  0  0  0
   -0.7500   -3.2860    0.0000 C   0  0  0  0  0  0  0  0  0  0  0  0
   -1.0838   -4.7484    0.0000 O   0  0  0  0  0  0  0  0  0  0  0  0
    0.0158   -5.7686    0.0000 C   0  0  0  0  0  0  0  0  0  0  0  0
   -0.3180   -7.2310    0.0000 C   0  0  0  0  0  0  0  0  0  0  0  0
    0.7816   -8.2513    0.0000 C   0  0  0  0  0  0  0  0  0  0  0  0
    1.4659   -9.5861    0.0000 C   0  0  0  0  0  0  0  0  0  0  0  0
   -0.4141   -9.1570    0.0000 O   0  0  0  0  0  0  0  0  0  0  0  0
   -0.2276  -10.6453    0.0000 C   0  0  0  0  0  0  0  0  0  0  0  0
    2.2150   -7.8091    0.0000 C   0  0  0  0  0  0  0  0  0  0  0  0
    3.3145   -8.8294    0.0000 O   0  0  0  0  0  0  0  0  0  0  0  0
    2.5487   -6.3467    0.0000 C   0  0  0  0  0  0  0  0  0  0  0  0
    3.9821   -5.9046    0.0000 C   0  0  0  0  0  0  0  0  0  0  0  0
    1.4492   -5.3265    0.0000 O   0  0  0  0  0  0  0  0  0  0  0  0
   -2.1015   -2.6351    0.0000 C   0  0  0  0  0  0  0  0  0  0  0  0
   -3.0367   -3.8079    0.0000 C   0  0  0  0  0  0  0  0  0  0  0  0
   -3.0367   -1.4624    0.0000 C   0  0  0  0  0  0  0  0  0  0  0  0
   -4.3881   -2.1132    0.0000 O   0  0  0  0  0  0  0  0  0  0  0  0
   -5.6275   -1.2682    0.0000 C   0  0  0  0  0  0  0  0  0  0  0  0
   -5.5154    0.2276    0.0000 O   0  0  0  0  0  0  0  0  0  0  0  0
   -6.7548    1.0725    0.0000 C   0  0  0  0  0  0  0  0  0  0  0  0
   -6.6427    2.5684    0.0000 C   0  0  0  0  0  0  0  0  0  0  0  0
   -8.1062    0.4217    0.0000 C   0  0  0  0  0  0  0  0  0  0  0  0
   -8.2183   -1.0741    0.0000 C   0  0  0  0  0  0  0  0  0  0  0  0
   -9.5698   -1.7249    0.0000 N   0  0  0  0  0  0  0  0  0  0  0  0
  -10.8091   -0.8799    0.0000 C   0  0  0  0  0  0  0  0  0  0  0  0
   -9.6819   -3.2207    0.0000 C   0  0  0  0  0  0  0  0  0  0  0  0
   -6.9790   -1.9191    0.0000 C   0  0  0  0  0  0  0  0  0  0  0  0
   -7.0910   -3.4149    0.0000 O   0  0  0  0  0  0  0  0  0  0  0  0
   -3.3705    0.0000    0.0000 C   0  0  0  0  0  0  0  0  0  0  0  0
   -4.6098   -0.8450    0.0000 C   0  0  0  0  0  0  0  0  0  0  0  0
   -4.6098    0.8450    0.0000 O   0  0  0  0  0  0  0  0  0  0  0  0
   -5.3904    0.6832    0.0000 C   0  0  0  0  0  0  0  0  0  0  0  0
   -3.0367    1.4624    0.0000 C   0  0  0  0  0  0  0  0  0  0  0  0
   -2.1015    2.6351    0.0000 C   0  0  0  0  0  0  0  0  0  0  0  0
   -3.0367    3.8079    0.0000 C   0  0  0  0  0  0  0  0  0  0  0  0
   -0.7500    3.2860    0.0000 C   0  0  0  0  0  0  0  0  0  0  0  0
   -1.0838    4.7484    0.0000 O   0  0  0  0  0  0  0  0  0  0  0  0
    0.7500    3.2860    0.0000 C   0  0  0  0  0  0  0  0  0  0  0  0
    1.0838    4.7484    0.0000 C   0  0  0  0  0  0  0  0  0  0  0  0
    2.1015    2.6351    0.0000 C   0  0  0  0  0  0  0  0  0  0  0  0
    3.0367    3.8079    0.0000 O   0  0  0  0  0  0  0  0  0  0  0  0
    3.0367    1.4624    0.0000 C   0  0  0  0  0  0  0  0  0  0  0  0
    3.7867    2.7614    0.0000 C   0  0  0  0  0  0  0  0  0  0  0  0
    4.5300    1.6044    0.0000 O   0  0  0  0  0  0  0  0  0  0  0  0
  1  2  1  0
  2  3  1  0
  3  4  1  6
  3  5  1  0
  5  6  1  0
  6  7  2  0
  6  8  1  0
  8  9  1  6
  8 10  1  0
 10 11  1  1
 12 11  1  6
 12 13  1  0
 13 14  1  0
 14 15  1  1
 14 16  1  0
 16 17  1  0
 14 18  1  0
 18 19  1  6
 18 20  1  0
 20 21  1  1
 20 22  1  0
 10 23  1  0
 23 24  1  6
 23 25  1  0
 25 26  1  1
 27 26  1  1
 27 28  1  0
 28 29  1  0
 29 30  1  1
 29 31  1  0
 31 32  1  0
 32 33  1  1
 33 34  1  0
 33 35  1  0
 32 36  1  0
 36 37  1  6
 25 38  1  0
 38 39  1  1
 38 40  1  0
 40 41  1  0
 38 42  1  0
 42 43  1  0
 43 44  1  1
 43 45  1  0
 45 46  2  0
 45 47  1  0
 47 48  1  6
 47 49  1  0
 49 50  1  1
 49 51  1  0
 51 52  1  1
 51 53  1  0
 51  3  1  0
 22 12  1  0
 36 27  1  0
M  END
>  <ChEMBL_IDs>  (300) 
nan

>  <target_organism>  (300) 
nan

>  <target_molecule_pref_name>  (300) 
nan

>  <# Known Targets>  (300) 
nan

>  <Known Targets>  (300) 
nan

>  <smiles>  (300) 
CC[C@@]1(O)OC(=O)[C@H](C)[C@@H](O[C@H]2C[C@@](C)(OC)[C@@H](O)[C@H](C)O2)[C@H](C)[C@@H](O[C@@H]2O[C@H](C)C[C@H](N(C)C)[C@H]2O)[C@](C)(OC)C[C@@H](C)C(=O)[C@H](C)[C@@H](O)[C@]1(C)O

$$$$

     RDKit          2D

 53 55  0  0  0  0  0  0  0  0999 V2000
    1.0048   -7.0184    0.0000 C   0  0  0  0  0  0  0  0  0  0  0  0
    1.8804   -5.8005    0.0000 O   0  0  0  0  0  0  0  0  0  0  0  0
    3.3730   -5.9498    0.0000 C   0  0  0  0  0  0  0  0  0  0  0  0
    2.9667   -7.3937    0.0000 C   0  0  0  0  0  0  0  0  0  0  0  0
    3.2609   -4.4540    0.0000 C   0  0  0  0  0  0  0  0  0  0  0  0
    4.5002   -3.6090    0.0000 C   0  0  0  0  0  0  0  0  0  0  0  0
    4.3881   -2.1132    0.0000 O   0  0  0  0  0  0  0  0  0  0  0  0
    3.0367   -1.4624    0.0000 C   0  0  0  0  0  0  0  0  0  0  0  0
    3.3705    0.0000    0.0000 C   0  0  0  0  0  0  0  0  0  0  0  0
    4.6804   -0.3267    0.0000 C   0  0  0  0  0  0  0  0  0  0  0  0
    3.0367    1.4624    0.0000 C   0  0  0  0  0  0  0  0  0  0  0  0
    4.3881    2.1132    0.0000 O   0  0  0  0  0  0  0  0  0  0  0  0
    5.6275    1.2682    0.0000 C   0  0  0  0  0  0  0  0  0  0  0  0
    5.5154   -0.2276    0.0000 O   0  0  0  0  0  0  0  0  0  0  0  0
    6.7548   -1.0725    0.0000 C   0  0  0  0  0  0  0  0  0  0  0  0
    6.6427   -2.5684    0.0000 C   0  0  0  0  0  0  0  0  0  0  0  0
    8.1062   -0.4217    0.0000 C   0  0  0  0  0  0  0  0  0  0  0  0
    8.2183    1.0741    0.0000 C   0  0  0  0  0  0  0  0  0  0  0  0
    9.5698    1.7249    0.0000 N   0  0  0  0  0  0  0  0  0  0  0  0
   10.8091    0.8799    0.0000 C   0  0  0  0  0  0  0  0  0  0  0  0
    9.6819    3.2207    0.0000 C   0  0  0  0  0  0  0  0  0  0  0  0
    6.9790    1.9191    0.0000 C   0  0  0  0  0  0  0  0  0  0  0  0
    7.0910    3.4149    0.0000 O   0  0  0  0  0  0  0  0  0  0  0  0
    2.1015    2.6351    0.0000 C   0  0  0  0  0  0  0  0  0  0  0  0
    2.2135    4.1309    0.0000 C   0  0  0  0  0  0  0  0  0  0  0  0
    3.5348    3.0773    0.0000 O   0  0  0  0  0  0  0  0  0  0  0  0
    3.8686    4.5397    0.0000 C   0  0  0  0  0  0  0  0  0  0  0  0
    0.7500    3.2860    0.0000 C   0  0  0  0  0  0  0  0  0  0  0  0
   -0.7500    3.2860    0.0000 C   0  0  0  0  0  0  0  0  0  0  0  0
   -1.0838    4.7484    0.0000 C   0  0  0  0  0  0  0  0  0  0  0  0
   -2.1015    2.6351    0.0000 C   0  0  0  0  0  0  0  0  0  0  0  0
   -3.0367    3.8079    0.0000 O   0  0  0  0  0  0  0  0  0  0  0  0
   -3.0367    1.4624    0.0000 C   0  0  0  0  0  0  0  0  0  0  0  0
   -4.3881    2.1132    0.0000 C   0  0  0  0  0  0  0  0  0  0  0  0
   -3.3705    0.0000    0.0000 C   0  0  0  0  0  0  0  0  0  0  0  0
   -4.8705    0.0000    0.0000 O   0  0  0  0  0  0  0  0  0  0  0  0
   -3.0367   -1.4624    0.0000 C   0  0  0  0  0  0  0  0  0  0  0  0
   -3.7867   -2.7614    0.0000 C   0  0  0  0  0  0  0  0  0  0  0  0
   -4.5199   -1.2388    0.0000 O   0  0  0  0  0  0  0  0  0  0  0  0
   -2.1015   -2.6351    0.0000 C   0  0  0  0  0  0  0  0  0  0  0  0
   -3.0367   -3.8079    0.0000 C   0  0  0  0  0  0  0  0  0  0  0  0
   -4.5199   -3.5843    0.0000 C   0  0  0  0  0  0  0  0  0  0  0  0
   -2.4887   -5.2042    0.0000 O   0  0  0  0  0  0  0  0  0  0  0  0
   -0.7500   -3.2860    0.0000 O   0  0  0  0  0  0  0  0  0  0  0  0
    0.7500   -3.2860    0.0000 C   0  0  0  0  0  0  0  0  0  0  0  0
    1.0838   -4.7484    0.0000 O   0  0  0  0  0  0  0  0  0  0  0  0
    2.1015   -2.6351    0.0000 C   0  0  0  0  0  0  0  0  0  0  0  0
    2.7251   -3.9993    0.0000 C   0  0  0  0  0  0  0  0  0  0  0  0
    5.8517   -4.2598    0.0000 O   0  0  0  0  0  0  0  0  0  0  0  0
    5.9638   -5.7557    0.0000 C   0  0  0  0  0  0  0  0  0  0  0  0
    7.3152   -6.4065    0.0000 C   0  0  0  0  0  0  0  0  0  0  0  0
    4.7244   -6.6006    0.0000 C   0  0  0  0  0  0  0  0  0  0  0  0
    4.8365   -8.0964    0.0000 O   0  0  0  0  0  0  0  0  0  0  0  0
  1  2  1  0
  2  3  1  0
  3  4  1  1
  3  5  1  0
  5  6  1  0
  6  7  1  6
  8  7  1  6
  8  9  1  0
  9 10  1  1
  9 11  1  0
 11 12  1  6
 13 12  1  1
 13 14  1  0
 14 15  1  0
 15 16  1  1
 15 17  1  0
 17 18  1  0
 18 19  1  1
 19 20  1  0
 19 21  1  0
 18 22  1  0
 22 23  1  6
 11 24  1  0
 24 25  1  6
 24 26  1  0
 26 27  1  0
 24 28  1  0
 28 29  1  0
 29 30  1  6
 29 31  1  0
 31 32  2  0
 31 33  1  0
 33 34  1  1
 33 35  1  0
 35 36  1  6
 35 37  1  0
 37 38  1  6
 37 39  1  0
 37 40  1  0
 40 41  1  6
 41 42  1  0
 41 43  1  0
 40 44  1  0
 44 45  1  0
 45 46  2  0
 45 47  1  0
 47 48  1  1
  6 49  1  0
 49 50  1  0
 50 51  1  1
 50 52  1  0
 52 53  1  6
 52  3  1  0
 47  8  1  0
 22 13  1  0
M  END
>  <ChEMBL_IDs>  (301) 
CHEMBL3544830

>  <target_organism>  (301) 
Hepatitis C virus,None

>  <target_molecule_pref_name>  (301) 
nan

>  <# Known Targets>  (301) 
nan

>  <Known Targets>  (301) 
nan

>  <smiles>  (301) 
CO[C@]1(C)C[C@H](O[C@H]2[C@H](C)[C@@H](O[C@@H]3O[C@H](C)C[C@H](N(C)C)[C@H]3O)[C@](C)(OC)C[C@@H](C)C(=O)[C@H](C)[C@@H](O)[C@](C)(O)[C@@H](C(C)O)OC(=O)[C@@H]2C)O[C@@H](C)[C@@H]1O

$$$$

     RDKit          2D

 51 53  0  0  0  0  0  0  0  0999 V2000
    5.8573   -1.2990    0.0000 C   0  0  0  0  0  0  0  0  0  0  0  0
    5.1073    0.0000    0.0000 C   0  0  0  0  0  0  0  0  0  0  0  0
    3.6073    0.0000    0.0000 C   0  0  0  0  0  0  0  0  0  0  0  0
    3.2954    1.4672    0.0000 O   0  0  0  0  0  0  0  0  0  0  0  0
    2.4138    2.6807    0.0000 C   0  0  0  0  0  0  0  0  0  0  0  0
    3.4175    3.7955    0.0000 O   0  0  0  0  0  0  0  0  0  0  0  0
    1.1147    3.4307    0.0000 C   0  0  0  0  0  0  0  0  0  0  0  0
    1.8302    4.5756    0.0000 C   0  0  0  0  0  0  0  0  0  0  0  0
   -0.3771    3.5875    0.0000 C   0  0  0  0  0  0  0  0  0  0  0  0
   -0.5339    5.0793    0.0000 O   0  0  0  0  0  0  0  0  0  0  0  0
    0.6797    5.9610    0.0000 C   0  0  0  0  0  0  0  0  0  0  0  0
    0.5229    7.4528    0.0000 C   0  0  0  0  0  0  0  0  0  0  0  0
    1.7364    8.3345    0.0000 C   0  0  0  0  0  0  0  0  0  0  0  0
    2.5752    9.5780    0.0000 C   0  0  0  0  0  0  0  0  0  0  0  0
    0.6574    9.3764    0.0000 O   0  0  0  0  0  0  0  0  0  0  0  0
    1.0203   10.8319    0.0000 C   0  0  0  0  0  0  0  0  0  0  0  0
    3.1067    7.7244    0.0000 C   0  0  0  0  0  0  0  0  0  0  0  0
    4.3202    8.6060    0.0000 O   0  0  0  0  0  0  0  0  0  0  0  0
    3.2635    6.2326    0.0000 C   0  0  0  0  0  0  0  0  0  0  0  0
    4.6338    5.6225    0.0000 C   0  0  0  0  0  0  0  0  0  0  0  0
    2.0500    5.3509    0.0000 O   0  0  0  0  0  0  0  0  0  0  0  0
   -1.8037    3.1240    0.0000 C   0  0  0  0  0  0  0  0  0  0  0  0
   -2.5537    4.4231    0.0000 C   0  0  0  0  0  0  0  0  0  0  0  0
   -2.9184    2.1203    0.0000 C   0  0  0  0  0  0  0  0  0  0  0  0
   -4.1319    3.0020    0.0000 O   0  0  0  0  0  0  0  0  0  0  0  0
   -5.5022    2.3919    0.0000 C   0  0  0  0  0  0  0  0  0  0  0  0
   -6.7157    3.2736    0.0000 O   0  0  0  0  0  0  0  0  0  0  0  0
   -8.0861    2.6635    0.0000 C   0  0  0  0  0  0  0  0  0  0  0  0
   -9.2996    3.5451    0.0000 C   0  0  0  0  0  0  0  0  0  0  0  0
   -8.2428    1.1717    0.0000 C   0  0  0  0  0  0  0  0  0  0  0  0
   -7.0293    0.2900    0.0000 C   0  0  0  0  0  0  0  0  0  0  0  0
   -7.1861   -1.2018    0.0000 N   0  0  0  0  0  0  0  0  0  0  0  0
   -8.5564   -1.8119    0.0000 C   0  0  0  0  0  0  0  0  0  0  0  0
   -5.9726   -2.0835    0.0000 C   0  0  0  0  0  0  0  0  0  0  0  0
   -5.6590    0.9001    0.0000 C   0  0  0  0  0  0  0  0  0  0  0  0
   -5.0760    0.3564    0.0000 O   0  0  0  0  0  0  0  0  0  0  0  0
   -3.5285    0.7500    0.0000 C   0  0  0  0  0  0  0  0  0  0  0  0
   -4.2257    0.3635    0.0000 C   0  0  0  0  0  0  0  0  0  0  0  0
   -4.5705    1.8290    0.0000 O   0  0  0  0  0  0  0  0  0  0  0  0
   -3.5285   -0.7500    0.0000 C   0  0  0  0  0  0  0  0  0  0  0  0
   -2.9184   -2.1203    0.0000 C   0  0  0  0  0  0  0  0  0  0  0  0
   -4.1319   -3.0020    0.0000 C   0  0  0  0  0  0  0  0  0  0  0  0
   -1.8037   -3.1240    0.0000 N   0  0  0  0  0  0  0  0  0  0  0  0
   -2.5537   -4.4231    0.0000 C   0  0  0  0  0  0  0  0  0  0  0  0
   -0.3771   -3.5875    0.0000 C   0  0  0  0  0  0  0  0  0  0  0  0
    1.1147   -3.4307    0.0000 C   0  0  0  0  0  0  0  0  0  0  0  0
    1.5782   -4.8573    0.0000 C   0  0  0  0  0  0  0  0  0  0  0  0
    2.4138   -2.6807    0.0000 C   0  0  0  0  0  0  0  0  0  0  0  0
    3.2954   -1.4672    0.0000 C   0  0  0  0  0  0  0  0  0  0  0  0
    4.7726   -1.2067    0.0000 C   0  0  0  0  0  0  0  0  0  0  0  0
    4.0903   -2.7393    0.0000 O   0  0  0  0  0  0  0  0  0  0  0  0
  1  2  1  0
  3  2  1  6
  3  4  1  0
  4  5  1  0
  5  6  2  0
  5  7  1  0
  7  8  1  1
  7  9  1  0
  9 10  1  6
 11 10  1  1
 11 12  1  0
 12 13  1  0
 13 14  1  6
 13 15  1  0
 15 16  1  0
 13 17  1  0
 17 18  1  1
 17 19  1  0
 19 20  1  6
 19 21  1  0
  9 22  1  0
 22 23  1  1
 22 24  1  0
 24 25  1  6
 26 25  1  1
 26 27  1  0
 27 28  1  0
 28 29  1  1
 28 30  1  0
 30 31  1  0
 31 32  1  1
 32 33  1  0
 32 34  1  0
 31 35  1  0
 35 36  1  6
 24 37  1  0
 37 38  1  6
 37 39  1  0
 37 40  1  0
 40 41  1  0
 41 42  1  6
 41 43  1  0
 43 44  1  0
 43 45  1  0
 45 46  1  0
 46 47  1  0
 46 48  2  0
 48 49  1  0
 49 50  1  6
 49 51  1  0
 49  3  1  0
 21 11  1  0
 35 26  1  0
M  END
>  <ChEMBL_IDs>  (302) 
nan

>  <target_organism>  (302) 
nan

>  <target_molecule_pref_name>  (302) 
nan

>  <# Known Targets>  (302) 
nan

>  <Known Targets>  (302) 
nan

>  <smiles>  (302) 
CC[C@H]1OC(=O)[C@H](C)[C@@H](O[C@H]2C[C@@](C)(OC)[C@@H](O)[C@H](C)O2)[C@H](C)[C@@H](O[C@@H]2O[C@H](C)C[C@H](N(C)C)[C@H]2O)[C@](C)(O)C[C@@H](C)N(C)C/C(C)=C/[C@]1(C)O

$$$$

     RDKit          2D

 53 55  0  0  0  0  0  0  0  0999 V2000
    5.8573   -1.2990    0.0000 C   0  0  0  0  0  0  0  0  0  0  0  0
    5.1073    0.0000    0.0000 C   0  0  0  0  0  0  0  0  0  0  0  0
    3.6073    0.0000    0.0000 C   0  0  0  0  0  0  0  0  0  0  0  0
    3.2954    1.4672    0.0000 O   0  0  0  0  0  0  0  0  0  0  0  0
    2.4138    2.6807    0.0000 C   0  0  0  0  0  0  0  0  0  0  0  0
    3.4175    3.7955    0.0000 O   0  0  0  0  0  0  0  0  0  0  0  0
    1.1147    3.4307    0.0000 C   0  0  0  0  0  0  0  0  0  0  0  0
    1.8302    4.5756    0.0000 C   0  0  0  0  0  0  0  0  0  0  0  0
   -0.3771    3.5875    0.0000 C   0  0  0  0  0  0  0  0  0  0  0  0
   -0.5339    5.0793    0.0000 O   0  0  0  0  0  0  0  0  0  0  0  0
    0.6797    5.9610    0.0000 C   0  0  0  0  0  0  0  0  0  0  0  0
    0.5229    7.4528    0.0000 C   0  0  0  0  0  0  0  0  0  0  0  0
    1.7364    8.3345    0.0000 C   0  0  0  0  0  0  0  0  0  0  0  0
    2.5752    9.5780    0.0000 C   0  0  0  0  0  0  0  0  0  0  0  0
    0.6574    9.3764    0.0000 O   0  0  0  0  0  0  0  0  0  0  0  0
    1.0203   10.8319    0.0000 C   0  0  0  0  0  0  0  0  0  0  0  0
    3.1067    7.7244    0.0000 C   0  0  0  0  0  0  0  0  0  0  0  0
    4.3202    8.6060    0.0000 O   0  0  0  0  0  0  0  0  0  0  0  0
    3.2635    6.2326    0.0000 C   0  0  0  0  0  0  0  0  0  0  0  0
    4.6338    5.6225    0.0000 C   0  0  0  0  0  0  0  0  0  0  0  0
    2.0500    5.3509    0.0000 O   0  0  0  0  0  0  0  0  0  0  0  0
   -1.8037    3.1240    0.0000 C   0  0  0  0  0  0  0  0  0  0  0  0
   -2.5537    4.4231    0.0000 C   0  0  0  0  0  0  0  0  0  0  0  0
   -2.9184    2.1203    0.0000 C   0  0  0  0  0  0  0  0  0  0  0  0
   -4.1319    3.0020    0.0000 O   0  0  0  0  0  0  0  0  0  0  0  0
   -5.5022    2.3919    0.0000 C   0  0  0  0  0  0  0  0  0  0  0  0
   -6.7157    3.2736    0.0000 O   0  0  0  0  0  0  0  0  0  0  0  0
   -8.0861    2.6635    0.0000 C   0  0  0  0  0  0  0  0  0  0  0  0
   -9.2996    3.5451    0.0000 C   0  0  0  0  0  0  0  0  0  0  0  0
   -8.2428    1.1717    0.0000 C   0  0  0  0  0  0  0  0  0  0  0  0
   -7.0293    0.2900    0.0000 C   0  0  0  0  0  0  0  0  0  0  0  0
   -7.1861   -1.2018    0.0000 N   0  0  0  0  0  0  0  0  0  0  0  0
   -8.5564   -1.8119    0.0000 C   0  0  0  0  0  0  0  0  0  0  0  0
   -5.9726   -2.0835    0.0000 C   0  0  0  0  0  0  0  0  0  0  0  0
   -5.6590    0.9001    0.0000 C   0  0  0  0  0  0  0  0  0  0  0  0
   -5.0760    0.3564    0.0000 O   0  0  0  0  0  0  0  0  0  0  0  0
   -3.5285    0.7500    0.0000 C   0  0  0  0  0  0  0  0  0  0  0  0
   -4.2257    0.3635    0.0000 C   0  0  0  0  0  0  0  0  0  0  0  0
   -4.5705    1.8290    0.0000 O   0  0  0  0  0  0  0  0  0  0  0  0
   -5.8948    1.1247    0.0000 C   0  0  0  0  0  0  0  0  0  0  0  0
   -3.5285   -0.7500    0.0000 C   0  0  0  0  0  0  0  0  0  0  0  0
   -2.9184   -2.1203    0.0000 C   0  0  0  0  0  0  0  0  0  0  0  0
   -4.1319   -3.0020    0.0000 C   0  0  0  0  0  0  0  0  0  0  0  0
   -1.8037   -3.1240    0.0000 C   0  0  0  0  0  0  0  0  0  0  0  0
   -2.5537   -4.4231    0.0000 O   0  0  0  0  0  0  0  0  0  0  0  0
   -0.3771   -3.5875    0.0000 N   0  0  0  0  0  0  0  0  0  0  0  0
    1.1147   -3.4307    0.0000 C   0  0  0  0  0  0  0  0  0  0  0  0
    1.5782   -4.8573    0.0000 C   0  0  0  0  0  0  0  0  0  0  0  0
    2.4138   -2.6807    0.0000 C   0  0  0  0  0  0  0  0  0  0  0  0
    3.4175   -3.7955    0.0000 O   0  0  0  0  0  0  0  0  0  0  0  0
    3.2954   -1.4672    0.0000 C   0  0  0  0  0  0  0  0  0  0  0  0
    4.7726   -1.2067    0.0000 C   0  0  0  0  0  0  0  0  0  0  0  0
    4.0903   -2.7393    0.0000 O   0  0  0  0  0  0  0  0  0  0  0  0
  1  2  1  0
  3  2  1  6
  3  4  1  0
  4  5  1  0
  5  6  2  0
  5  7  1  0
  7  8  1  1
  7  9  1  0
  9 10  1  6
 11 10  1  1
 11 12  1  0
 12 13  1  0
 13 14  1  6
 13 15  1  0
 15 16  1  0
 13 17  1  0
 17 18  1  1
 17 19  1  0
 19 20  1  6
 19 21  1  0
  9 22  1  0
 22 23  1  1
 22 24  1  0
 24 25  1  6
 25 26  1  0
 26 27  1  0
 27 28  1  0
 28 29  1  1
 28 30  1  0
 30 31  1  0
 31 32  1  1
 32 33  1  0
 32 34  1  0
 31 35  1  0
 35 36  1  6
 24 37  1  0
 37 38  1  6
 37 39  1  0
 39 40  1  0
 37 41  1  0
 41 42  1  0
 42 43  1  6
 42 44  1  0
 44 45  2  0
 44 46  1  0
 46 47  1  0
 47 48  1  1
 47 49  1  0
 49 50  1  6
 49 51  1  0
 51 52  1  6
 51 53  1  0
 51  3  1  0
 21 11  1  0
 35 26  1  0
M  END
>  <ChEMBL_IDs>  (303) 
CHEMBL310945

>  <target_organism>  (303) 
None

>  <target_molecule_pref_name>  (303) 
nan

>  <# Known Targets>  (303) 
nan

>  <Known Targets>  (303) 
nan

>  <smiles>  (303) 
CC[C@H]1OC(=O)[C@H](C)[C@@H](O[C@H]2C[C@@](C)(OC)[C@@H](O)[C@H](C)O2)[C@H](C)[C@@H](OC2O[C@H](C)C[C@H](N(C)C)[C@H]2O)[C@](C)(OC)C[C@@H](C)C(=O)N[C@H](C)[C@@H](O)[C@]1(C)O

$$$$

     RDKit          2D

 53 55  0  0  0  0  0  0  0  0999 V2000
    5.6205   -1.2990    0.0000 C   0  0  0  0  0  0  0  0  0  0  0  0
    4.8705    0.0000    0.0000 C   0  0  0  0  0  0  0  0  0  0  0  0
    3.3705    0.0000    0.0000 C   0  0  0  0  0  0  0  0  0  0  0  0
    3.0367   -1.4624    0.0000 O   0  0  0  0  0  0  0  0  0  0  0  0
    2.1015   -2.6351    0.0000 C   0  0  0  0  0  0  0  0  0  0  0  0
    3.0367   -3.8079    0.0000 O   0  0  0  0  0  0  0  0  0  0  0  0
    0.7500   -3.2860    0.0000 C   0  0  0  0  0  0  0  0  0  0  0  0
    1.3600   -4.4903    0.0000 C   0  0  0  0  0  0  0  0  0  0  0  0
   -0.7500   -3.2860    0.0000 C   0  0  0  0  0  0  0  0  0  0  0  0
   -1.0838   -4.7484    0.0000 O   0  0  0  0  0  0  0  0  0  0  0  0
    0.0158   -5.7686    0.0000 C   0  0  0  0  0  0  0  0  0  0  0  0
   -0.3180   -7.2310    0.0000 C   0  0  0  0  0  0  0  0  0  0  0  0
    0.7816   -8.2513    0.0000 C   0  0  0  0  0  0  0  0  0  0  0  0
    1.4659   -9.5861    0.0000 C   0  0  0  0  0  0  0  0  0  0  0  0
   -0.4141   -9.1570    0.0000 O   0  0  0  0  0  0  0  0  0  0  0  0
   -0.2276  -10.6453    0.0000 C   0  0  0  0  0  0  0  0  0  0  0  0
    2.2150   -7.8091    0.0000 C   0  0  0  0  0  0  0  0  0  0  0  0
    3.3145   -8.8294    0.0000 O   0  0  0  0  0  0  0  0  0  0  0  0
    2.5487   -6.3467    0.0000 C   0  0  0  0  0  0  0  0  0  0  0  0
    3.9821   -5.9046    0.0000 C   0  0  0  0  0  0  0  0  0  0  0  0
    1.4492   -5.3265    0.0000 O   0  0  0  0  0  0  0  0  0  0  0  0
   -2.1015   -2.6351    0.0000 C   0  0  0  0  0  0  0  0  0  0  0  0
   -3.0367   -3.8079    0.0000 C   0  0  0  0  0  0  0  0  0  0  0  0
   -3.0367   -1.4624    0.0000 C   0  0  0  0  0  0  0  0  0  0  0  0
   -4.3881   -2.1132    0.0000 O   0  0  0  0  0  0  0  0  0  0  0  0
   -5.6275   -1.2682    0.0000 C   0  0  0  0  0  0  0  0  0  0  0  0
   -5.5154    0.2276    0.0000 O   0  0  0  0  0  0  0  0  0  0  0  0
   -6.7548    1.0725    0.0000 C   0  0  0  0  0  0  0  0  0  0  0  0
   -6.6427    2.5684    0.0000 C   0  0  0  0  0  0  0  0  0  0  0  0
   -8.1062    0.4217    0.0000 C   0  0  0  0  0  0  0  0  0  0  0  0
   -8.2183   -1.0741    0.0000 C   0  0  0  0  0  0  0  0  0  0  0  0
   -9.5698   -1.7249    0.0000 N   0  0  0  0  0  0  0  0  0  0  0  0
  -10.8091   -0.8799    0.0000 C   0  0  0  0  0  0  0  0  0  0  0  0
   -9.6819   -3.2207    0.0000 C   0  0  0  0  0  0  0  0  0  0  0  0
   -6.9790   -1.9191    0.0000 C   0  0  0  0  0  0  0  0  0  0  0  0
   -7.0910   -3.4149    0.0000 O   0  0  0  0  0  0  0  0  0  0  0  0
   -3.3705    0.0000    0.0000 C   0  0  0  0  0  0  0  0  0  0  0  0
   -4.6098   -0.8450    0.0000 C   0  0  0  0  0  0  0  0  0  0  0  0
   -4.6098    0.8450    0.0000 O   0  0  0  0  0  0  0  0  0  0  0  0
   -3.0367    1.4624    0.0000 C   0  0  0  0  0  0  0  0  0  0  0  0
   -2.1015    2.6351    0.0000 C   0  0  0  0  0  0  0  0  0  0  0  0
   -3.0367    3.8079    0.0000 C   0  0  0  0  0  0  0  0  0  0  0  0
   -0.7500    3.2860    0.0000 C   0  0  0  0  0  0  0  0  0  0  0  0
   -1.0838    4.7484    0.0000 N   0  0  0  0  0  0  0  0  0  0  0  0
    0.0158    5.7686    0.0000 O   0  0  0  0  0  0  0  0  0  0  0  0
   -0.3180    7.2310    0.0000 C   0  0  0  0  0  0  0  0  0  0  0  0
    0.7500    3.2860    0.0000 C   0  0  0  0  0  0  0  0  0  0  0  0
    1.0838    4.7484    0.0000 C   0  0  0  0  0  0  0  0  0  0  0  0
    2.1015    2.6351    0.0000 C   0  0  0  0  0  0  0  0  0  0  0  0
    3.0367    3.8079    0.0000 O   0  0  0  0  0  0  0  0  0  0  0  0
    3.0367    1.4624    0.0000 C   0  0  0  0  0  0  0  0  0  0  0  0
    3.7867    2.7614    0.0000 C   0  0  0  0  0  0  0  0  0  0  0  0
    4.5199    1.2388    0.0000 O   0  0  0  0  0  0  0  0  0  0  0  0
  1  2  1  0
  3  2  1  1
  3  4  1  0
  4  5  1  0
  5  6  2  0
  5  7  1  0
  7  8  1  6
  7  9  1  0
  9 10  1  1
 11 10  1  6
 11 12  1  0
 12 13  1  0
 13 14  1  1
 13 15  1  0
 15 16  1  0
 13 17  1  0
 17 18  1  6
 17 19  1  0
 19 20  1  1
 19 21  1  0
  9 22  1  0
 22 23  1  6
 22 24  1  0
 24 25  1  1
 26 25  1  1
 26 27  1  0
 27 28  1  0
 28 29  1  1
 28 30  1  0
 30 31  1  0
 31 32  1  1
 32 33  1  0
 32 34  1  0
 31 35  1  0
 35 36  1  6
 24 37  1  0
 37 38  1  1
 37 39  1  0
 37 40  1  0
 40 41  1  0
 41 42  1  1
 41 43  1  0
 43 44  2  0
 44 45  1  0
 45 46  1  0
 43 47  1  0
 47 48  1  6
 47 49  1  0
 49 50  1  1
 49 51  1  0
 51 52  1  1
 51 53  1  0
 51  3  1  0
 21 11  1  0
 35 26  1  0
M  END
>  <ChEMBL_IDs>  (304) 
CHEMBL2106397

>  <target_organism>  (304) 
Plasmodium falciparum

>  <target_molecule_pref_name>  (304) 
nan

>  <# Known Targets>  (304) 
nan

>  <Known Targets>  (304) 
nan

>  <smiles>  (304) 
CC[C@H]1OC(=O)[C@H](C)[C@@H](O[C@H]2C[C@@](C)(OC)[C@@H](O)[C@H](C)O2)[C@H](C)[C@@H](O[C@@H]2O[C@H](C)C[C@H](N(C)C)[C@H]2O)[C@](C)(O)C[C@@H](C)/C(=N/OC)[C@H](C)[C@@H](O)[C@]1(C)O

$$$$

     RDKit          2D

 54 56  0  0  0  0  0  0  0  0999 V2000
    5.6205   -1.2990    0.0000 C   0  0  0  0  0  0  0  0  0  0  0  0
    4.8705    0.0000    0.0000 C   0  0  0  0  0  0  0  0  0  0  0  0
    3.3705    0.0000    0.0000 C   0  0  0  0  0  0  0  0  0  0  0  0
    3.0367   -1.4624    0.0000 O   0  0  0  0  0  0  0  0  0  0  0  0
    2.1015   -2.6351    0.0000 C   0  0  0  0  0  0  0  0  0  0  0  0
    3.0367   -3.8079    0.0000 O   0  0  0  0  0  0  0  0  0  0  0  0
    0.7500   -3.2860    0.0000 C   0  0  0  0  0  0  0  0  0  0  0  0
    1.3600   -4.4903    0.0000 C   0  0  0  0  0  0  0  0  0  0  0  0
   -0.7500   -3.2860    0.0000 C   0  0  0  0  0  0  0  0  0  0  0  0
   -1.0838   -4.7484    0.0000 O   0  0  0  0  0  0  0  0  0  0  0  0
    0.0158   -5.7686    0.0000 C   0  0  0  0  0  0  0  0  0  0  0  0
   -0.3180   -7.2310    0.0000 C   0  0  0  0  0  0  0  0  0  0  0  0
    0.7816   -8.2513    0.0000 C   0  0  0  0  0  0  0  0  0  0  0  0
    1.4659   -9.5861    0.0000 C   0  0  0  0  0  0  0  0  0  0  0  0
   -0.4141   -9.1570    0.0000 O   0  0  0  0  0  0  0  0  0  0  0  0
   -0.2276  -10.6453    0.0000 C   0  0  0  0  0  0  0  0  0  0  0  0
    2.2150   -7.8091    0.0000 C   0  0  0  0  0  0  0  0  0  0  0  0
    3.3145   -8.8294    0.0000 O   0  0  0  0  0  0  0  0  0  0  0  0
    2.5487   -6.3467    0.0000 C   0  0  0  0  0  0  0  0  0  0  0  0
    3.9821   -5.9046    0.0000 C   0  0  0  0  0  0  0  0  0  0  0  0
    1.4492   -5.3265    0.0000 O   0  0  0  0  0  0  0  0  0  0  0  0
   -2.1015   -2.6351    0.0000 C   0  0  0  0  0  0  0  0  0  0  0  0
   -3.0367   -3.8079    0.0000 C   0  0  0  0  0  0  0  0  0  0  0  0
   -3.0367   -1.4624    0.0000 C   0  0  0  0  0  0  0  0  0  0  0  0
   -4.3881   -2.1132    0.0000 O   0  0  0  0  0  0  0  0  0  0  0  0
   -5.6275   -1.2682    0.0000 C   0  0  0  0  0  0  0  0  0  0  0  0
   -5.5154    0.2276    0.0000 O   0  0  0  0  0  0  0  0  0  0  0  0
   -6.7548    1.0725    0.0000 C   0  0  0  0  0  0  0  0  0  0  0  0
   -6.6427    2.5684    0.0000 C   0  0  0  0  0  0  0  0  0  0  0  0
   -8.1062    0.4217    0.0000 C   0  0  0  0  0  0  0  0  0  0  0  0
   -8.2183   -1.0741    0.0000 C   0  0  0  0  0  0  0  0  0  0  0  0
   -9.5698   -1.7249    0.0000 N   0  0  0  0  0  0  0  0  0  0  0  0
  -10.8091   -0.8799    0.0000 C   0  0  0  0  0  0  0  0  0  0  0  0
   -9.6819   -3.2207    0.0000 C   0  0  0  0  0  0  0  0  0  0  0  0
  -11.0333   -3.8715    0.0000 C   0  0  0  0  0  0  0  0  0  0  0  0
  -11.1454   -5.3673    0.0000 N   0  0  0  0  0  0  0  0  0  0  0  0
  -12.2727   -3.0266    0.0000 O   0  0  0  0  0  0  0  0  0  0  0  0
   -6.9790   -1.9191    0.0000 C   0  0  0  0  0  0  0  0  0  0  0  0
   -7.0910   -3.4149    0.0000 O   0  0  0  0  0  0  0  0  0  0  0  0
   -3.3705    0.0000    0.0000 C   0  0  0  0  0  0  0  0  0  0  0  0
   -4.6098   -0.8450    0.0000 C   0  0  0  0  0  0  0  0  0  0  0  0
   -4.6098    0.8450    0.0000 O   0  0  0  0  0  0  0  0  0  0  0  0
   -3.0367    1.4624    0.0000 C   0  0  0  0  0  0  0  0  0  0  0  0
   -2.1015    2.6351    0.0000 C   0  0  0  0  0  0  0  0  0  0  0  0
   -3.0367    3.8079    0.0000 C   0  0  0  0  0  0  0  0  0  0  0  0
   -0.7500    3.2860    0.0000 C   0  0  0  0  0  0  0  0  0  0  0  0
   -1.0838    4.7484    0.0000 O   0  0  0  0  0  0  0  0  0  0  0  0
    0.7500    3.2860    0.0000 C   0  0  0  0  0  0  0  0  0  0  0  0
    1.0838    4.7484    0.0000 C   0  0  0  0  0  0  0  0  0  0  0  0
    2.1015    2.6351    0.0000 C   0  0  0  0  0  0  0  0  0  0  0  0
    3.0367    3.8079    0.0000 O   0  0  0  0  0  0  0  0  0  0  0  0
    3.0367    1.4624    0.0000 C   0  0  0  0  0  0  0  0  0  0  0  0
    3.7867    2.7614    0.0000 C   0  0  0  0  0  0  0  0  0  0  0  0
    4.5199    1.2388    0.0000 O   0  0  0  0  0  0  0  0  0  0  0  0
  1  2  1  0
  3  2  1  1
  3  4  1  0
  4  5  1  0
  5  6  2  0
  5  7  1  0
  7  8  1  6
  7  9  1  0
  9 10  1  1
 11 10  1  1
 11 12  1  0
 12 13  1  0
 13 14  1  1
 13 15  1  0
 15 16  1  0
 13 17  1  0
 17 18  1  6
 17 19  1  0
 19 20  1  1
 19 21  1  0
  9 22  1  0
 22 23  1  6
 22 24  1  0
 24 25  1  1
 26 25  1  1
 26 27  1  0
 27 28  1  0
 28 29  1  1
 28 30  1  0
 30 31  1  0
 31 32  1  1
 32 33  1  0
 32 34  1  0
 34 35  1  0
 35 36  1  0
 35 37  2  0
 31 38  1  0
 38 39  1  6
 24 40  1  0
 40 41  1  1
 40 42  1  0
 40 43  1  0
 43 44  1  0
 44 45  1  1
 44 46  1  0
 46 47  1  6
 46 48  1  0
 48 49  1  6
 48 50  1  0
 50 51  1  1
 50 52  1  0
 52 53  1  1
 52 54  1  0
 52  3  1  0
 21 11  1  0
 38 26  1  0
M  END
>  <ChEMBL_IDs>  (305) 
CHEMBL1256551

>  <target_organism>  (305) 
nan

>  <target_molecule_pref_name>  (305) 
nan

>  <# Known Targets>  (305) 
nan

>  <Known Targets>  (305) 
nan

>  <smiles>  (305) 
CC[C@H]1OC(=O)[C@H](C)[C@@H](O[C@@H]2C[C@@](C)(OC)[C@@H](O)[C@H](C)O2)[C@H](C)[C@@H](O[C@@H]2O[C@H](C)C[C@H](N(C)CC(N)=O)[C@H]2O)[C@](C)(O)C[C@@H](C)[C@H](O)[C@H](C)[C@@H](O)[C@]1(C)O

$$$$

     RDKit          2D

 52 54  0  0  0  0  0  0  0  0999 V2000
    5.6205   -1.2990    0.0000 C   0  0  0  0  0  0  0  0  0  0  0  0
    4.8705    0.0000    0.0000 C   0  0  0  0  0  0  0  0  0  0  0  0
    3.3705    0.0000    0.0000 C   0  0  0  0  0  0  0  0  0  0  0  0
    3.0367   -1.4624    0.0000 O   0  0  0  0  0  0  0  0  0  0  0  0
    2.1015   -2.6351    0.0000 C   0  0  0  0  0  0  0  0  0  0  0  0
    3.0367   -3.8079    0.0000 O   0  0  0  0  0  0  0  0  0  0  0  0
    0.7500   -3.2860    0.0000 C   0  0  0  0  0  0  0  0  0  0  0  0
    1.3600   -4.4903    0.0000 C   0  0  0  0  0  0  0  0  0  0  0  0
   -0.7500   -3.2860    0.0000 C   0  0  0  0  0  0  0  0  0  0  0  0
   -1.0838   -4.7484    0.0000 O   0  0  0  0  0  0  0  0  0  0  0  0
    0.0158   -5.7686    0.0000 C   0  0  0  0  0  0  0  0  0  0  0  0
   -0.3180   -7.2310    0.0000 C   0  0  0  0  0  0  0  0  0  0  0  0
    0.7816   -8.2513    0.0000 C   0  0  0  0  0  0  0  0  0  0  0  0
    1.4659   -9.5861    0.0000 C   0  0  0  0  0  0  0  0  0  0  0  0
   -0.4141   -9.1570    0.0000 O   0  0  0  0  0  0  0  0  0  0  0  0
   -0.2276  -10.6453    0.0000 C   0  0  0  0  0  0  0  0  0  0  0  0
    2.2150   -7.8091    0.0000 C   0  0  0  0  0  0  0  0  0  0  0  0
    3.3145   -8.8294    0.0000 O   0  0  0  0  0  0  0  0  0  0  0  0
    2.5487   -6.3467    0.0000 C   0  0  0  0  0  0  0  0  0  0  0  0
    3.9821   -5.9046    0.0000 C   0  0  0  0  0  0  0  0  0  0  0  0
    1.4492   -5.3265    0.0000 O   0  0  0  0  0  0  0  0  0  0  0  0
   -2.1015   -2.6351    0.0000 C   0  0  0  0  0  0  0  0  0  0  0  0
   -3.0367   -3.8079    0.0000 C   0  0  0  0  0  0  0  0  0  0  0  0
   -3.0367   -1.4624    0.0000 C   0  0  0  0  0  0  0  0  0  0  0  0
   -4.3881   -2.1132    0.0000 O   0  0  0  0  0  0  0  0  0  0  0  0
   -5.6275   -1.2682    0.0000 C   0  0  0  0  0  0  0  0  0  0  0  0
   -5.5154    0.2276    0.0000 O   0  0  0  0  0  0  0  0  0  0  0  0
   -6.7548    1.0725    0.0000 C   0  0  0  0  0  0  0  0  0  0  0  0
   -6.6427    2.5684    0.0000 C   0  0  0  0  0  0  0  0  0  0  0  0
   -8.1062    0.4217    0.0000 C   0  0  0  0  0  0  0  0  0  0  0  0
   -8.2183   -1.0741    0.0000 C   0  0  0  0  0  0  0  0  0  0  0  0
   -9.5698   -1.7249    0.0000 N   0  0  0  0  0  0  0  0  0  0  0  0
  -10.8091   -0.8799    0.0000 C   0  0  0  0  0  0  0  0  0  0  0  0
  -12.1606   -1.5308    0.0000 C   0  0  0  0  0  0  0  0  0  0  0  0
  -10.6970    0.6159    0.0000 C   0  0  0  0  0  0  0  0  0  0  0  0
   -6.9790   -1.9191    0.0000 C   0  0  0  0  0  0  0  0  0  0  0  0
   -7.0910   -3.4149    0.0000 O   0  0  0  0  0  0  0  0  0  0  0  0
   -3.3705    0.0000    0.0000 C   0  0  0  0  0  0  0  0  0  0  0  0
   -4.6098   -0.8450    0.0000 C   0  0  0  0  0  0  0  0  0  0  0  0
   -4.6098    0.8450    0.0000 O   0  0  0  0  0  0  0  0  0  0  0  0
   -3.0367    1.4624    0.0000 C   0  0  0  0  0  0  0  0  0  0  0  0
   -2.1015    2.6351    0.0000 C   0  0  0  0  0  0  0  0  0  0  0  0
   -3.0367    3.8079    0.0000 C   0  0  0  0  0  0  0  0  0  0  0  0
   -0.7500    3.2860    0.0000 C   0  0  0  0  0  0  0  0  0  0  0  0
   -1.0838    4.7484    0.0000 O   0  0  0  0  0  0  0  0  0  0  0  0
    0.7500    3.2860    0.0000 C   0  0  0  0  0  0  0  0  0  0  0  0
    1.0838    4.7484    0.0000 C   0  0  0  0  0  0  0  0  0  0  0  0
    2.1015    2.6351    0.0000 C   0  0  0  0  0  0  0  0  0  0  0  0
    3.0367    3.8079    0.0000 O   0  0  0  0  0  0  0  0  0  0  0  0
    3.0367    1.4624    0.0000 C   0  0  0  0  0  0  0  0  0  0  0  0
    3.7867    2.7614    0.0000 C   0  0  0  0  0  0  0  0  0  0  0  0
    4.5199    1.2388    0.0000 O   0  0  0  0  0  0  0  0  0  0  0  0
  1  2  1  0
  3  2  1  1
  3  4  1  0
  4  5  1  0
  5  6  2  0
  5  7  1  0
  7  8  1  6
  7  9  1  0
  9 10  1  1
 11 10  1  1
 11 12  1  0
 12 13  1  0
 13 14  1  1
 13 15  1  0
 15 16  1  0
 13 17  1  0
 17 18  1  6
 17 19  1  0
 19 20  1  1
 19 21  1  0
  9 22  1  0
 22 23  1  6
 22 24  1  0
 24 25  1  1
 26 25  1  1
 26 27  1  0
 27 28  1  0
 28 29  1  1
 28 30  1  0
 30 31  1  0
 31 32  1  1
 32 33  1  0
 33 34  1  0
 33 35  1  0
 31 36  1  0
 36 37  1  6
 24 38  1  0
 38 39  1  1
 38 40  1  0
 38 41  1  0
 41 42  1  0
 42 43  1  1
 42 44  1  0
 44 45  1  6
 44 46  1  0
 46 47  1  6
 46 48  1  0
 48 49  1  1
 48 50  1  0
 50 51  1  1
 50 52  1  0
 50  3  1  0
 21 11  1  0
 36 26  1  0
M  END
>  <ChEMBL_IDs>  (306) 
CHEMBL1256552

>  <target_organism>  (306) 
nan

>  <target_molecule_pref_name>  (306) 
nan

>  <# Known Targets>  (306) 
nan

>  <Known Targets>  (306) 
nan

>  <smiles>  (306) 
CC[C@H]1OC(=O)[C@H](C)[C@@H](O[C@@H]2C[C@@](C)(OC)[C@@H](O)[C@H](C)O2)[C@H](C)[C@@H](O[C@@H]2O[C@H](C)C[C@H](NC(C)C)[C@H]2O)[C@](C)(O)C[C@@H](C)[C@H](O)[C@H](C)[C@@H](O)[C@]1(C)O

$$$$

     RDKit          2D

 51 53  0  0  0  0  0  0  0  0999 V2000
    5.8573   -1.2990    0.0000 C   0  0  0  0  0  0  0  0  0  0  0  0
    5.1073    0.0000    0.0000 C   0  0  0  0  0  0  0  0  0  0  0  0
    3.6073    0.0000    0.0000 C   0  0  0  0  0  0  0  0  0  0  0  0
    3.2954    1.4672    0.0000 O   0  0  0  0  0  0  0  0  0  0  0  0
    2.4138    2.6807    0.0000 C   0  0  0  0  0  0  0  0  0  0  0  0
    3.4175    3.7955    0.0000 O   0  0  0  0  0  0  0  0  0  0  0  0
    1.1147    3.4307    0.0000 C   0  0  0  0  0  0  0  0  0  0  0  0
    1.8302    4.5756    0.0000 C   0  0  0  0  0  0  0  0  0  0  0  0
   -0.3771    3.5875    0.0000 C   0  0  0  0  0  0  0  0  0  0  0  0
   -0.5339    5.0793    0.0000 O   0  0  0  0  0  0  0  0  0  0  0  0
    0.6797    5.9610    0.0000 C   0  0  0  0  0  0  0  0  0  0  0  0
    0.5229    7.4528    0.0000 C   0  0  0  0  0  0  0  0  0  0  0  0
    1.7364    8.3345    0.0000 C   0  0  0  0  0  0  0  0  0  0  0  0
    2.5752    9.5780    0.0000 C   0  0  0  0  0  0  0  0  0  0  0  0
    0.6574    9.3764    0.0000 O   0  0  0  0  0  0  0  0  0  0  0  0
    1.0203   10.8319    0.0000 C   0  0  0  0  0  0  0  0  0  0  0  0
    3.1067    7.7244    0.0000 C   0  0  0  0  0  0  0  0  0  0  0  0
    4.3202    8.6060    0.0000 O   0  0  0  0  0  0  0  0  0  0  0  0
    3.2635    6.2326    0.0000 C   0  0  0  0  0  0  0  0  0  0  0  0
    4.6338    5.6225    0.0000 C   0  0  0  0  0  0  0  0  0  0  0  0
    2.0500    5.3509    0.0000 O   0  0  0  0  0  0  0  0  0  0  0  0
   -1.8037    3.1240    0.0000 C   0  0  0  0  0  0  0  0  0  0  0  0
   -2.5537    4.4231    0.0000 C   0  0  0  0  0  0  0  0  0  0  0  0
   -2.9184    2.1203    0.0000 C   0  0  0  0  0  0  0  0  0  0  0  0
   -4.1319    3.0020    0.0000 O   0  0  0  0  0  0  0  0  0  0  0  0
   -5.5022    2.3919    0.0000 C   0  0  0  0  0  0  0  0  0  0  0  0
   -6.7157    3.2736    0.0000 O   0  0  0  0  0  0  0  0  0  0  0  0
   -8.0861    2.6635    0.0000 C   0  0  0  0  0  0  0  0  0  0  0  0
   -9.2996    3.5451    0.0000 C   0  0  0  0  0  0  0  0  0  0  0  0
   -8.2428    1.1717    0.0000 C   0  0  0  0  0  0  0  0  0  0  0  0
   -7.0293    0.2900    0.0000 C   0  0  0  0  0  0  0  0  0  0  0  0
   -7.1861   -1.2018    0.0000 N   0  0  0  0  0  0  0  0  0  0  0  0
   -8.5564   -1.8119    0.0000 C   0  0  0  0  0  0  0  0  0  0  0  0
   -5.9726   -2.0835    0.0000 C   0  0  0  0  0  0  0  0  0  0  0  0
   -5.6590    0.9001    0.0000 C   0  0  0  0  0  0  0  0  0  0  0  0
   -5.0760    0.3564    0.0000 O   0  0  0  0  0  0  0  0  0  0  0  0
   -3.5285    0.7500    0.0000 C   0  0  0  0  0  0  0  0  0  0  0  0
   -4.2257    0.3635    0.0000 C   0  0  0  0  0  0  0  0  0  0  0  0
   -4.5705    1.8290    0.0000 O   0  0  0  0  0  0  0  0  0  0  0  0
   -3.5285   -0.7500    0.0000 C   0  0  0  0  0  0  0  0  0  0  0  0
   -2.9184   -2.1203    0.0000 C   0  0  0  0  0  0  0  0  0  0  0  0
   -4.1319   -3.0020    0.0000 C   0  0  0  0  0  0  0  0  0  0  0  0
   -1.8037   -3.1240    0.0000 N   0  0  0  0  0  0  0  0  0  0  0  0
   -2.5537   -4.4231    0.0000 C   0  0  0  0  0  0  0  0  0  0  0  0
   -0.3771   -3.5875    0.0000 C   0  0  0  0  0  0  0  0  0  0  0  0
    1.1147   -3.4307    0.0000 C   0  0  0  0  0  0  0  0  0  0  0  0
    1.5782   -4.8573    0.0000 C   0  0  0  0  0  0  0  0  0  0  0  0
    2.4138   -2.6807    0.0000 C   0  0  0  0  0  0  0  0  0  0  0  0
    3.2954   -1.4672    0.0000 C   0  0  0  0  0  0  0  0  0  0  0  0
    4.7726   -1.2067    0.0000 C   0  0  0  0  0  0  0  0  0  0  0  0
    4.0903   -2.7393    0.0000 O   0  0  0  0  0  0  0  0  0  0  0  0
  1  2  1  0
  3  2  1  6
  3  4  1  0
  4  5  1  0
  5  6  2  0
  5  7  1  0
  7  8  1  1
  7  9  1  0
  9 10  1  6
 11 10  1  1
 11 12  1  0
 12 13  1  0
 13 14  1  6
 13 15  1  0
 15 16  1  0
 13 17  1  0
 17 18  1  1
 17 19  1  0
 19 20  1  6
 19 21  1  0
  9 22  1  0
 22 23  1  1
 22 24  1  0
 24 25  1  6
 26 25  1  1
 26 27  1  0
 27 28  1  0
 28 29  1  1
 28 30  1  0
 30 31  1  0
 31 32  1  1
 32 33  1  0
 32 34  1  0
 31 35  1  0
 35 36  1  6
 24 37  1  0
 37 38  1  6
 37 39  1  0
 37 40  1  0
 40 41  1  0
 41 42  1  6
 41 43  1  0
 43 44  1  0
 43 45  1  0
 45 46  1  0
 46 47  1  6
 46 48  1  0
 48 49  1  0
 49 50  1  6
 49 51  1  0
 49  3  1  0
 21 11  1  0
 35 26  1  0
M  END
>  <ChEMBL_IDs>  (307) 
CHEMBL294091

>  <target_organism>  (307) 
None

>  <target_molecule_pref_name>  (307) 
nan

>  <# Known Targets>  (307) 
nan

>  <Known Targets>  (307) 
nan

>  <smiles>  (307) 
CC[C@H]1OC(=O)[C@H](C)[C@@H](O[C@H]2C[C@@](C)(OC)[C@@H](O)[C@H](C)O2)[C@H](C)[C@@H](O[C@@H]2O[C@H](C)C[C@H](N(C)C)[C@H]2O)[C@](C)(O)C[C@@H](C)N(C)C[C@@H](C)C[C@]1(C)O

$$$$

     RDKit          2D

 51 53  0  0  0  0  0  0  0  0999 V2000
    5.8573   -1.2990    0.0000 C   0  0  0  0  0  0  0  0  0  0  0  0
    5.1073    0.0000    0.0000 C   0  0  0  0  0  0  0  0  0  0  0  0
    3.6073    0.0000    0.0000 C   0  0  0  0  0  0  0  0  0  0  0  0
    3.2954    1.4672    0.0000 O   0  0  0  0  0  0  0  0  0  0  0  0
    2.4138    2.6807    0.0000 C   0  0  0  0  0  0  0  0  0  0  0  0
    3.4175    3.7955    0.0000 O   0  0  0  0  0  0  0  0  0  0  0  0
    1.1147    3.4307    0.0000 C   0  0  0  0  0  0  0  0  0  0  0  0
    1.8302    4.5756    0.0000 C   0  0  0  0  0  0  0  0  0  0  0  0
   -0.3771    3.5875    0.0000 C   0  0  0  0  0  0  0  0  0  0  0  0
   -0.5339    5.0793    0.0000 O   0  0  0  0  0  0  0  0  0  0  0  0
    0.6797    5.9610    0.0000 C   0  0  0  0  0  0  0  0  0  0  0  0
    0.5229    7.4528    0.0000 C   0  0  0  0  0  0  0  0  0  0  0  0
    1.7364    8.3345    0.0000 C   0  0  0  0  0  0  0  0  0  0  0  0
    2.5752    9.5780    0.0000 C   0  0  0  0  0  0  0  0  0  0  0  0
    0.6574    9.3764    0.0000 O   0  0  0  0  0  0  0  0  0  0  0  0
    1.0203   10.8319    0.0000 C   0  0  0  0  0  0  0  0  0  0  0  0
    3.1067    7.7244    0.0000 C   0  0  0  0  0  0  0  0  0  0  0  0
    4.3202    8.6060    0.0000 O   0  0  0  0  0  0  0  0  0  0  0  0
    3.2635    6.2326    0.0000 C   0  0  0  0  0  0  0  0  0  0  0  0
    4.6338    5.6225    0.0000 C   0  0  0  0  0  0  0  0  0  0  0  0
    2.0500    5.3509    0.0000 O   0  0  0  0  0  0  0  0  0  0  0  0
   -1.8037    3.1240    0.0000 C   0  0  0  0  0  0  0  0  0  0  0  0
   -2.5537    4.4231    0.0000 C   0  0  0  0  0  0  0  0  0  0  0  0
   -2.9184    2.1203    0.0000 C   0  0  0  0  0  0  0  0  0  0  0  0
   -4.1319    3.0020    0.0000 O   0  0  0  0  0  0  0  0  0  0  0  0
   -5.5022    2.3919    0.0000 C   0  0  0  0  0  0  0  0  0  0  0  0
   -6.7157    3.2736    0.0000 O   0  0  0  0  0  0  0  0  0  0  0  0
   -8.0861    2.6635    0.0000 C   0  0  0  0  0  0  0  0  0  0  0  0
   -9.2996    3.5451    0.0000 C   0  0  0  0  0  0  0  0  0  0  0  0
   -8.2428    1.1717    0.0000 C   0  0  0  0  0  0  0  0  0  0  0  0
   -7.0293    0.2900    0.0000 C   0  0  0  0  0  0  0  0  0  0  0  0
   -7.1861   -1.2018    0.0000 N   0  0  0  0  0  0  0  0  0  0  0  0
   -8.5564   -1.8119    0.0000 C   0  0  0  0  0  0  0  0  0  0  0  0
   -5.9726   -2.0835    0.0000 C   0  0  0  0  0  0  0  0  0  0  0  0
   -5.6590    0.9001    0.0000 C   0  0  0  0  0  0  0  0  0  0  0  0
   -5.0760    0.3564    0.0000 O   0  0  0  0  0  0  0  0  0  0  0  0
   -3.5285    0.7500    0.0000 C   0  0  0  0  0  0  0  0  0  0  0  0
   -4.2257    0.3635    0.0000 C   0  0  0  0  0  0  0  0  0  0  0  0
   -4.5705    1.8290    0.0000 O   0  0  0  0  0  0  0  0  0  0  0  0
   -3.5285   -0.7500    0.0000 C   0  0  0  0  0  0  0  0  0  0  0  0
   -2.9184   -2.1203    0.0000 C   0  0  0  0  0  0  0  0  0  0  0  0
   -4.1319   -3.0020    0.0000 C   0  0  0  0  0  0  0  0  0  0  0  0
   -1.8037   -3.1240    0.0000 N   0  0  0  0  0  0  0  0  0  0  0  0
   -2.5537   -4.4231    0.0000 C   0  0  0  0  0  0  0  0  0  0  0  0
   -0.3771   -3.5875    0.0000 C   0  0  0  0  0  0  0  0  0  0  0  0
    1.1147   -3.4307    0.0000 C   0  0  0  0  0  0  0  0  0  0  0  0
    1.5782   -4.8573    0.0000 C   0  0  0  0  0  0  0  0  0  0  0  0
    2.4138   -2.6807    0.0000 C   0  0  0  0  0  0  0  0  0  0  0  0
    3.2954   -1.4672    0.0000 C   0  0  0  0  0  0  0  0  0  0  0  0
    4.7726   -1.2067    0.0000 C   0  0  0  0  0  0  0  0  0  0  0  0
    4.0903   -2.7393    0.0000 O   0  0  0  0  0  0  0  0  0  0  0  0
  1  2  1  0
  3  2  1  6
  3  4  1  0
  4  5  1  0
  5  6  2  0
  5  7  1  0
  7  8  1  1
  7  9  1  0
  9 10  1  6
 11 10  1  1
 11 12  1  0
 12 13  1  0
 13 14  1  6
 13 15  1  0
 15 16  1  0
 13 17  1  0
 17 18  1  1
 17 19  1  0
 19 20  1  6
 19 21  1  0
  9 22  1  0
 22 23  1  1
 22 24  1  0
 24 25  1  6
 26 25  1  1
 26 27  1  0
 27 28  1  0
 28 29  1  1
 28 30  1  0
 30 31  1  0
 31 32  1  1
 32 33  1  0
 32 34  1  0
 31 35  1  0
 35 36  1  6
 24 37  1  0
 37 38  1  6
 37 39  1  0
 37 40  1  0
 40 41  1  0
 41 42  1  6
 41 43  1  0
 43 44  1  0
 43 45  1  0
 45 46  1  0
 46 47  1  1
 46 48  1  0
 48 49  1  0
 49 50  1  6
 49 51  1  0
 49  3  1  0
 21 11  1  0
 35 26  1  0
M  END
>  <ChEMBL_IDs>  (308) 
CHEMBL60299

>  <target_organism>  (308) 
Rattus norvegicus

>  <target_molecule_pref_name>  (308) 
nan

>  <# Known Targets>  (308) 
nan

>  <Known Targets>  (308) 
nan

>  <smiles>  (308) 
CC[C@H]1OC(=O)[C@H](C)[C@@H](O[C@H]2C[C@@](C)(OC)[C@@H](O)[C@H](C)O2)[C@H](C)[C@@H](O[C@@H]2O[C@H](C)C[C@H](N(C)C)[C@H]2O)[C@](C)(O)C[C@@H](C)N(C)C[C@H](C)C[C@]1(C)O

$$$$

     RDKit          2D

 52 54  0  0  0  0  0  0  0  0999 V2000
    5.6205   -1.2990    0.0000 C   0  0  0  0  0  0  0  0  0  0  0  0
    4.8705    0.0000    0.0000 C   0  0  0  0  0  0  0  0  0  0  0  0
    3.3705    0.0000    0.0000 C   0  0  0  0  0  0  0  0  0  0  0  0
    3.0367   -1.4624    0.0000 O   0  0  0  0  0  0  0  0  0  0  0  0
    2.1015   -2.6351    0.0000 C   0  0  0  0  0  0  0  0  0  0  0  0
    3.0367   -3.8079    0.0000 O   0  0  0  0  0  0  0  0  0  0  0  0
    0.7500   -3.2860    0.0000 C   0  0  0  0  0  0  0  0  0  0  0  0
    1.3600   -4.4903    0.0000 C   0  0  0  0  0  0  0  0  0  0  0  0
   -0.7500   -3.2860    0.0000 C   0  0  0  0  0  0  0  0  0  0  0  0
   -1.0838   -4.7484    0.0000 O   0  0  0  0  0  0  0  0  0  0  0  0
    0.0158   -5.7686    0.0000 C   0  0  0  0  0  0  0  0  0  0  0  0
   -0.3180   -7.2310    0.0000 C   0  0  0  0  0  0  0  0  0  0  0  0
    0.7816   -8.2513    0.0000 C   0  0  0  0  0  0  0  0  0  0  0  0
    1.4659   -9.5861    0.0000 C   0  0  0  0  0  0  0  0  0  0  0  0
   -0.4141   -9.1570    0.0000 O   0  0  0  0  0  0  0  0  0  0  0  0
   -0.2276  -10.6453    0.0000 C   0  0  0  0  0  0  0  0  0  0  0  0
    2.2150   -7.8091    0.0000 C   0  0  0  0  0  0  0  0  0  0  0  0
    3.3145   -8.8294    0.0000 O   0  0  0  0  0  0  0  0  0  0  0  0
    2.5487   -6.3467    0.0000 C   0  0  0  0  0  0  0  0  0  0  0  0
    3.9821   -5.9046    0.0000 C   0  0  0  0  0  0  0  0  0  0  0  0
    1.4492   -5.3265    0.0000 O   0  0  0  0  0  0  0  0  0  0  0  0
   -2.1015   -2.6351    0.0000 C   0  0  0  0  0  0  0  0  0  0  0  0
   -3.0367   -3.8079    0.0000 C   0  0  0  0  0  0  0  0  0  0  0  0
   -3.0367   -1.4624    0.0000 C   0  0  0  0  0  0  0  0  0  0  0  0
   -4.3881   -2.1132    0.0000 O   0  0  0  0  0  0  0  0  0  0  0  0
   -5.6275   -1.2682    0.0000 C   0  0  0  0  0  0  0  0  0  0  0  0
   -5.5154    0.2276    0.0000 O   0  0  0  0  0  0  0  0  0  0  0  0
   -6.7548    1.0725    0.0000 C   0  0  0  0  0  0  0  0  0  0  0  0
   -6.6427    2.5684    0.0000 C   0  0  0  0  0  0  0  0  0  0  0  0
   -8.1062    0.4217    0.0000 C   0  0  0  0  0  0  0  0  0  0  0  0
   -8.2183   -1.0741    0.0000 C   0  0  0  0  0  0  0  0  0  0  0  0
   -9.5698   -1.7249    0.0000 N   0  0  0  0  0  0  0  0  0  0  0  0
  -10.8091   -0.8799    0.0000 C   0  0  0  0  0  0  0  0  0  0  0  0
   -9.6819   -3.2207    0.0000 C   0  0  0  0  0  0  0  0  0  0  0  0
   -6.9790   -1.9191    0.0000 C   0  0  0  0  0  0  0  0  0  0  0  0
   -7.0910   -3.4149    0.0000 O   0  0  0  0  0  0  0  0  0  0  0  0
   -3.3705    0.0000    0.0000 C   0  0  0  0  0  0  0  0  0  0  0  0
   -4.6098   -0.8450    0.0000 C   0  0  0  0  0  0  0  0  0  0  0  0
   -4.6098    0.8450    0.0000 O   0  0  0  0  0  0  0  0  0  0  0  0
   -3.0367    1.4624    0.0000 C   0  0  0  0  0  0  0  0  0  0  0  0
   -2.1015    2.6351    0.0000 C   0  0  0  0  0  0  0  0  0  0  0  0
   -3.0367    3.8079    0.0000 C   0  0  0  0  0  0  0  0  0  0  0  0
   -0.7500    3.2860    0.0000 C   0  0  0  0  0  0  0  0  0  0  0  0
   -1.0838    4.7484    0.0000 N   0  0  0  0  0  0  0  0  0  0  0  0
    0.0158    5.7686    0.0000 C   0  0  0  0  0  0  0  0  0  0  0  0
    0.7500    3.2860    0.0000 C   0  0  0  0  0  0  0  0  0  0  0  0
    1.0838    4.7484    0.0000 C   0  0  0  0  0  0  0  0  0  0  0  0
    2.1015    2.6351    0.0000 C   0  0  0  0  0  0  0  0  0  0  0  0
    3.0367    3.8079    0.0000 O   0  0  0  0  0  0  0  0  0  0  0  0
    3.0367    1.4624    0.0000 C   0  0  0  0  0  0  0  0  0  0  0  0
    3.7867    2.7614    0.0000 C   0  0  0  0  0  0  0  0  0  0  0  0
    4.5199    1.2388    0.0000 O   0  0  0  0  0  0  0  0  0  0  0  0
  1  2  1  0
  3  2  1  1
  3  4  1  0
  4  5  1  0
  5  6  2  0
  5  7  1  0
  7  8  1  6
  7  9  1  0
  9 10  1  1
 10 11  1  0
 11 12  1  0
 12 13  1  0
 13 14  1  0
 13 15  1  0
 15 16  1  0
 13 17  1  0
 17 18  1  0
 17 19  1  0
 19 20  1  0
 19 21  1  0
  9 22  1  0
 22 23  1  6
 22 24  1  0
 24 25  1  1
 25 26  1  0
 26 27  1  0
 27 28  1  0
 28 29  1  0
 28 30  1  0
 30 31  1  0
 31 32  1  0
 32 33  1  0
 32 34  1  0
 31 35  1  0
 35 36  1  0
 24 37  1  0
 37 38  1  1
 37 39  1  0
 37 40  1  0
 40 41  1  0
 41 42  1  1
 41 43  1  0
 43 44  1  6
 44 45  1  0
 43 46  1  0
 46 47  1  6
 46 48  1  0
 48 49  1  1
 48 50  1  0
 50 51  1  1
 50 52  1  0
 50  3  1  0
 21 11  1  0
 35 26  1  0
M  END
>  <ChEMBL_IDs>  (309) 
CHEMBL323291

>  <target_organism>  (309) 
None

>  <target_molecule_pref_name>  (309) 
nan

>  <# Known Targets>  (309) 
nan

>  <Known Targets>  (309) 
nan

>  <smiles>  (309) 
CC[C@H]1OC(=O)[C@H](C)[C@@H](OC2CC(C)(OC)C(O)C(C)O2)[C@H](C)[C@@H](OC2OC(C)CC(N(C)C)C2O)[C@](C)(O)C[C@@H](C)[C@H](NC)[C@H](C)[C@@H](O)[C@]1(C)O

$$$$

     RDKit          2D

 52 54  0  0  0  0  0  0  0  0999 V2000
    5.8573   -1.2990    0.0000 C   0  0  0  0  0  0  0  0  0  0  0  0
    5.1073    0.0000    0.0000 C   0  0  0  0  0  0  0  0  0  0  0  0
    3.6073    0.0000    0.0000 C   0  0  0  0  0  0  0  0  0  0  0  0
    3.2954    1.4672    0.0000 O   0  0  0  0  0  0  0  0  0  0  0  0
    2.4138    2.6807    0.0000 C   0  0  0  0  0  0  0  0  0  0  0  0
    3.4175    3.7955    0.0000 O   0  0  0  0  0  0  0  0  0  0  0  0
    1.1147    3.4307    0.0000 C   0  0  0  0  0  0  0  0  0  0  0  0
    1.8302    4.5756    0.0000 C   0  0  0  0  0  0  0  0  0  0  0  0
   -0.3771    3.5875    0.0000 C   0  0  0  0  0  0  0  0  0  0  0  0
   -0.5339    5.0793    0.0000 O   0  0  0  0  0  0  0  0  0  0  0  0
    0.6797    5.9610    0.0000 C   0  0  0  0  0  0  0  0  0  0  0  0
    0.5229    7.4528    0.0000 C   0  0  0  0  0  0  0  0  0  0  0  0
    1.7364    8.3345    0.0000 C   0  0  0  0  0  0  0  0  0  0  0  0
    2.5752    9.5780    0.0000 C   0  0  0  0  0  0  0  0  0  0  0  0
    0.6574    9.3764    0.0000 O   0  0  0  0  0  0  0  0  0  0  0  0
    1.0203   10.8319    0.0000 C   0  0  0  0  0  0  0  0  0  0  0  0
    3.1067    7.7244    0.0000 C   0  0  0  0  0  0  0  0  0  0  0  0
    4.6031    7.6197    0.0000 C   0  0  0  0  0  0  0  0  0  0  0  0
    3.4696    9.1798    0.0000 O   0  0  0  0  0  0  0  0  0  0  0  0
    3.2635    6.2326    0.0000 C   0  0  0  0  0  0  0  0  0  0  0  0
    4.6338    5.6225    0.0000 C   0  0  0  0  0  0  0  0  0  0  0  0
    2.0500    5.3509    0.0000 O   0  0  0  0  0  0  0  0  0  0  0  0
   -1.8037    3.1240    0.0000 C   0  0  0  0  0  0  0  0  0  0  0  0
   -2.5537    4.4231    0.0000 C   0  0  0  0  0  0  0  0  0  0  0  0
   -2.9184    2.1203    0.0000 C   0  0  0  0  0  0  0  0  0  0  0  0
   -4.1319    3.0020    0.0000 O   0  0  0  0  0  0  0  0  0  0  0  0
   -5.5022    2.3919    0.0000 C   0  0  0  0  0  0  0  0  0  0  0  0
   -6.7157    3.2736    0.0000 O   0  0  0  0  0  0  0  0  0  0  0  0
   -8.0861    2.6635    0.0000 C   0  0  0  0  0  0  0  0  0  0  0  0
   -9.2996    3.5451    0.0000 C   0  0  0  0  0  0  0  0  0  0  0  0
   -8.2428    1.1717    0.0000 C   0  0  0  0  0  0  0  0  0  0  0  0
   -7.0293    0.2900    0.0000 C   0  0  0  0  0  0  0  0  0  0  0  0
   -7.1861   -1.2018    0.0000 N   0  0  0  0  0  0  0  0  0  0  0  0
   -8.5564   -1.8119    0.0000 C   0  0  0  0  0  0  0  0  0  0  0  0
   -5.9726   -2.0835    0.0000 C   0  0  0  0  0  0  0  0  0  0  0  0
   -5.6590    0.9001    0.0000 C   0  0  0  0  0  0  0  0  0  0  0  0
   -5.0760    0.3564    0.0000 O   0  0  0  0  0  0  0  0  0  0  0  0
   -3.5285    0.7500    0.0000 C   0  0  0  0  0  0  0  0  0  0  0  0
   -4.2257    0.3635    0.0000 C   0  0  0  0  0  0  0  0  0  0  0  0
   -4.5705    1.8290    0.0000 O   0  0  0  0  0  0  0  0  0  0  0  0
   -3.5285   -0.7500    0.0000 C   0  0  0  0  0  0  0  0  0  0  0  0
   -2.9184   -2.1203    0.0000 C   0  0  0  0  0  0  0  0  0  0  0  0
   -4.1319   -3.0020    0.0000 C   0  0  0  0  0  0  0  0  0  0  0  0
   -1.8037   -3.1240    0.0000 C   0  0  0  0  0  0  0  0  0  0  0  0
   -0.3771   -3.5875    0.0000 N   0  0  0  0  0  0  0  0  0  0  0  0
    1.1147   -3.4307    0.0000 C   0  0  0  0  0  0  0  0  0  0  0  0
    1.5782   -4.8573    0.0000 C   0  0  0  0  0  0  0  0  0  0  0  0
    2.4138   -2.6807    0.0000 C   0  0  0  0  0  0  0  0  0  0  0  0
    3.4175   -3.7955    0.0000 O   0  0  0  0  0  0  0  0  0  0  0  0
    3.2954   -1.4672    0.0000 C   0  0  0  0  0  0  0  0  0  0  0  0
    4.7726   -1.2067    0.0000 C   0  0  0  0  0  0  0  0  0  0  0  0
    4.0903   -2.7393    0.0000 O   0  0  0  0  0  0  0  0  0  0  0  0
  1  2  1  0
  3  2  1  6
  3  4  1  0
  4  5  1  0
  5  6  2  0
  5  7  1  0
  7  8  1  1
  7  9  1  0
  9 10  1  6
 11 10  1  1
 11 12  1  0
 12 13  1  0
 13 14  1  6
 13 15  1  0
 15 16  1  0
 13 17  1  0
 17 18  1  1
 17 19  1  0
 17 20  1  0
 20 21  1  6
 20 22  1  0
  9 23  1  0
 23 24  1  1
 23 25  1  0
 25 26  1  6
 27 26  1  1
 27 28  1  0
 28 29  1  0
 29 30  1  1
 29 31  1  0
 31 32  1  0
 32 33  1  1
 33 34  1  0
 33 35  1  0
 32 36  1  0
 36 37  1  6
 25 38  1  0
 38 39  1  6
 38 40  1  0
 38 41  1  0
 41 42  1  0
 42 43  1  6
 42 44  1  0
 44 45  1  0
 45 46  1  0
 46 47  1  1
 46 48  1  0
 48 49  1  6
 48 50  1  0
 50 51  1  6
 50 52  1  0
 50  3  1  0
 22 11  1  0
 36 27  1  0
M  END
>  <ChEMBL_IDs>  (310) 
CHEMBL58145

>  <target_organism>  (310) 
Rattus norvegicus

>  <target_molecule_pref_name>  (310) 
nan

>  <# Known Targets>  (310) 
nan

>  <Known Targets>  (310) 
nan

>  <smiles>  (310) 
CC[C@H]1OC(=O)[C@H](C)[C@@H](O[C@H]2C[C@@](C)(OC)[C@](C)(O)[C@H](C)O2)[C@H](C)[C@@H](O[C@@H]2O[C@H](C)C[C@H](N(C)C)[C@H]2O)[C@](C)(O)C[C@@H](C)CN[C@H](C)[C@@H](O)[C@]1(C)O

$$$$

     RDKit          2D

 52 54  0  0  0  0  0  0  0  0999 V2000
    5.8573   -1.2990    0.0000 C   0  0  0  0  0  0  0  0  0  0  0  0
    5.1073    0.0000    0.0000 C   0  0  0  0  0  0  0  0  0  0  0  0
    3.6073    0.0000    0.0000 C   0  0  0  0  0  0  0  0  0  0  0  0
    3.2954    1.4672    0.0000 O   0  0  0  0  0  0  0  0  0  0  0  0
    2.4138    2.6807    0.0000 C   0  0  0  0  0  0  0  0  0  0  0  0
    3.4175    3.7955    0.0000 O   0  0  0  0  0  0  0  0  0  0  0  0
    1.1147    3.4307    0.0000 C   0  0  0  0  0  0  0  0  0  0  0  0
    1.8302    4.5756    0.0000 C   0  0  0  0  0  0  0  0  0  0  0  0
   -0.3771    3.5875    0.0000 C   0  0  0  0  0  0  0  0  0  0  0  0
   -0.5339    5.0793    0.0000 O   0  0  0  0  0  0  0  0  0  0  0  0
    0.6797    5.9610    0.0000 C   0  0  0  0  0  0  0  0  0  0  0  0
    0.5229    7.4528    0.0000 C   0  0  0  0  0  0  0  0  0  0  0  0
    1.7364    8.3345    0.0000 C   0  0  0  0  0  0  0  0  0  0  0  0
    2.5752    9.5780    0.0000 C   0  0  0  0  0  0  0  0  0  0  0  0
    0.6574    9.3764    0.0000 O   0  0  0  0  0  0  0  0  0  0  0  0
    1.0203   10.8319    0.0000 C   0  0  0  0  0  0  0  0  0  0  0  0
    3.1067    7.7244    0.0000 C   0  0  0  0  0  0  0  0  0  0  0  0
    4.3202    8.6060    0.0000 O   0  0  0  0  0  0  0  0  0  0  0  0
    3.2635    6.2326    0.0000 C   0  0  0  0  0  0  0  0  0  0  0  0
    4.6338    5.6225    0.0000 C   0  0  0  0  0  0  0  0  0  0  0  0
    2.0500    5.3509    0.0000 O   0  0  0  0  0  0  0  0  0  0  0  0
   -1.8037    3.1240    0.0000 C   0  0  0  0  0  0  0  0  0  0  0  0
   -2.5537    4.4231    0.0000 C   0  0  0  0  0  0  0  0  0  0  0  0
   -2.9184    2.1203    0.0000 C   0  0  0  0  0  0  0  0  0  0  0  0
   -4.1319    3.0020    0.0000 O   0  0  0  0  0  0  0  0  0  0  0  0
   -5.5022    2.3919    0.0000 C   0  0  0  0  0  0  0  0  0  0  0  0
   -6.7157    3.2736    0.0000 O   0  0  0  0  0  0  0  0  0  0  0  0
   -8.0861    2.6635    0.0000 C   0  0  0  0  0  0  0  0  0  0  0  0
   -9.2996    3.5451    0.0000 C   0  0  0  0  0  0  0  0  0  0  0  0
   -8.2428    1.1717    0.0000 C   0  0  0  0  0  0  0  0  0  0  0  0
   -7.0293    0.2900    0.0000 C   0  0  0  0  0  0  0  0  0  0  0  0
   -7.1861   -1.2018    0.0000 N   0  0  0  0  0  0  0  0  0  0  0  0
   -8.5564   -1.8119    0.0000 C   0  0  0  0  0  0  0  0  0  0  0  0
   -5.9726   -2.0835    0.0000 C   0  0  0  0  0  0  0  0  0  0  0  0
   -5.6590    0.9001    0.0000 C   0  0  0  0  0  0  0  0  0  0  0  0
   -5.0760    0.3564    0.0000 O   0  0  0  0  0  0  0  0  0  0  0  0
   -3.5285    0.7500    0.0000 C   0  0  0  0  0  0  0  0  0  0  0  0
   -4.2257    0.3635    0.0000 C   0  0  0  0  0  0  0  0  0  0  0  0
   -4.5705    1.8290    0.0000 O   0  0  0  0  0  0  0  0  0  0  0  0
   -5.8948    1.1247    0.0000 C   0  0  0  0  0  0  0  0  0  0  0  0
   -3.5285   -0.7500    0.0000 C   0  0  0  0  0  0  0  0  0  0  0  0
   -2.9184   -2.1203    0.0000 C   0  0  0  0  0  0  0  0  0  0  0  0
   -4.1319   -3.0020    0.0000 C   0  0  0  0  0  0  0  0  0  0  0  0
   -1.8037   -3.1240    0.0000 C   0  0  0  0  0  0  0  0  0  0  0  0
   -0.3771   -3.5875    0.0000 N   0  0  0  0  0  0  0  0  0  0  0  0
    1.1147   -3.4307    0.0000 C   0  0  0  0  0  0  0  0  0  0  0  0
    1.5782   -4.8573    0.0000 C   0  0  0  0  0  0  0  0  0  0  0  0
    2.4138   -2.6807    0.0000 C   0  0  0  0  0  0  0  0  0  0  0  0
    3.4175   -3.7955    0.0000 O   0  0  0  0  0  0  0  0  0  0  0  0
    3.2954   -1.4672    0.0000 C   0  0  0  0  0  0  0  0  0  0  0  0
    4.7726   -1.2067    0.0000 C   0  0  0  0  0  0  0  0  0  0  0  0
    4.0903   -2.7393    0.0000 O   0  0  0  0  0  0  0  0  0  0  0  0
  1  2  1  0
  3  2  1  6
  3  4  1  0
  4  5  1  0
  5  6  2  0
  5  7  1  0
  7  8  1  1
  7  9  1  0
  9 10  1  6
 11 10  1  1
 11 12  1  0
 12 13  1  0
 13 14  1  6
 13 15  1  0
 15 16  1  0
 13 17  1  0
 17 18  1  1
 17 19  1  0
 19 20  1  6
 19 21  1  0
  9 22  1  0
 22 23  1  1
 22 24  1  0
 24 25  1  6
 26 25  1  1
 26 27  1  0
 27 28  1  0
 28 29  1  1
 28 30  1  0
 30 31  1  0
 31 32  1  1
 32 33  1  0
 32 34  1  0
 31 35  1  0
 35 36  1  6
 24 37  1  0
 37 38  1  6
 37 39  1  0
 39 40  1  0
 37 41  1  0
 41 42  1  0
 42 43  1  6
 42 44  1  0
 44 45  1  0
 45 46  1  0
 46 47  1  1
 46 48  1  0
 48 49  1  6
 48 50  1  0
 50 51  1  6
 50 52  1  0
 50  3  1  0
 21 11  1  0
 35 26  1  0
M  END
>  <ChEMBL_IDs>  (311) 
CHEMBL376149

>  <target_organism>  (311) 
Hepatitis C virus,None

>  <target_molecule_pref_name>  (311) 
nan

>  <# Known Targets>  (311) 
nan

>  <Known Targets>  (311) 
nan

>  <smiles>  (311) 
CC[C@H]1OC(=O)[C@H](C)[C@@H](O[C@H]2C[C@@](C)(OC)[C@@H](O)[C@H](C)O2)[C@H](C)[C@@H](O[C@@H]2O[C@H](C)C[C@H](N(C)C)[C@H]2O)[C@](C)(OC)C[C@@H](C)CN[C@H](C)[C@@H](O)[C@]1(C)O

$$$$

     RDKit          2D

 52 54  0  0  0  0  0  0  0  0999 V2000
    5.8573   -1.2990    0.0000 C   0  0  0  0  0  0  0  0  0  0  0  0
    5.1073    0.0000    0.0000 C   0  0  0  0  0  0  0  0  0  0  0  0
    3.6073    0.0000    0.0000 C   0  0  0  0  0  0  0  0  0  0  0  0
    3.2954    1.4672    0.0000 O   0  0  0  0  0  0  0  0  0  0  0  0
    2.4138    2.6807    0.0000 C   0  0  0  0  0  0  0  0  0  0  0  0
    3.4175    3.7955    0.0000 O   0  0  0  0  0  0  0  0  0  0  0  0
    1.1147    3.4307    0.0000 C   0  0  0  0  0  0  0  0  0  0  0  0
    1.8302    4.5756    0.0000 C   0  0  0  0  0  0  0  0  0  0  0  0
   -0.3771    3.5875    0.0000 C   0  0  0  0  0  0  0  0  0  0  0  0
   -0.5339    5.0793    0.0000 O   0  0  0  0  0  0  0  0  0  0  0  0
    0.6797    5.9610    0.0000 C   0  0  0  0  0  0  0  0  0  0  0  0
    0.5229    7.4528    0.0000 C   0  0  0  0  0  0  0  0  0  0  0  0
    1.7364    8.3345    0.0000 C   0  0  0  0  0  0  0  0  0  0  0  0
    2.5752    9.5780    0.0000 C   0  0  0  0  0  0  0  0  0  0  0  0
    0.6574    9.3764    0.0000 O   0  0  0  0  0  0  0  0  0  0  0  0
    1.0203   10.8319    0.0000 C   0  0  0  0  0  0  0  0  0  0  0  0
    3.1067    7.7244    0.0000 C   0  0  0  0  0  0  0  0  0  0  0  0
    4.3202    8.6060    0.0000 O   0  0  0  0  0  0  0  0  0  0  0  0
    3.2635    6.2326    0.0000 C   0  0  0  0  0  0  0  0  0  0  0  0
    4.6338    5.6225    0.0000 C   0  0  0  0  0  0  0  0  0  0  0  0
    2.0500    5.3509    0.0000 O   0  0  0  0  0  0  0  0  0  0  0  0
   -1.8037    3.1240    0.0000 C   0  0  0  0  0  0  0  0  0  0  0  0
   -2.5537    4.4231    0.0000 C   0  0  0  0  0  0  0  0  0  0  0  0
   -2.9184    2.1203    0.0000 C   0  0  0  0  0  0  0  0  0  0  0  0
   -4.1319    3.0020    0.0000 O   0  0  0  0  0  0  0  0  0  0  0  0
   -5.5022    2.3919    0.0000 C   0  0  0  0  0  0  0  0  0  0  0  0
   -6.7157    3.2736    0.0000 O   0  0  0  0  0  0  0  0  0  0  0  0
   -8.0861    2.6635    0.0000 C   0  0  0  0  0  0  0  0  0  0  0  0
   -9.2996    3.5451    0.0000 C   0  0  0  0  0  0  0  0  0  0  0  0
   -8.2428    1.1717    0.0000 C   0  0  0  0  0  0  0  0  0  0  0  0
   -7.0293    0.2900    0.0000 C   0  0  0  0  0  0  0  0  0  0  0  0
   -7.1861   -1.2018    0.0000 N   0  0  0  0  0  0  0  0  0  0  0  0
   -8.5564   -1.8119    0.0000 C   0  0  0  0  0  0  0  0  0  0  0  0
   -5.9726   -2.0835    0.0000 C   0  0  0  0  0  0  0  0  0  0  0  0
   -5.6590    0.9001    0.0000 C   0  0  0  0  0  0  0  0  0  0  0  0
   -5.0760    0.3564    0.0000 O   0  0  0  0  0  0  0  0  0  0  0  0
   -3.5285    0.7500    0.0000 C   0  0  0  0  0  0  0  0  0  0  0  0
   -4.2257    0.3635    0.0000 C   0  0  0  0  0  0  0  0  0  0  0  0
   -4.5705    1.8290    0.0000 O   0  0  0  0  0  0  0  0  0  0  0  0
   -3.5285   -0.7500    0.0000 C   0  0  0  0  0  0  0  0  0  0  0  0
   -2.9184   -2.1203    0.0000 C   0  0  0  0  0  0  0  0  0  0  0  0
   -4.1319   -3.0020    0.0000 C   0  0  0  0  0  0  0  0  0  0  0  0
   -1.8037   -3.1240    0.0000 N   0  0  0  0  0  0  0  0  0  0  0  0
   -2.5537   -4.4231    0.0000 C   0  0  0  0  0  0  0  0  0  0  0  0
   -0.3771   -3.5875    0.0000 C   0  0  0  0  0  0  0  0  0  0  0  0
    1.1147   -3.4307    0.0000 C   0  0  0  0  0  0  0  0  0  0  0  0
    1.5782   -4.8573    0.0000 C   0  0  0  0  0  0  0  0  0  0  0  0
    2.4138   -2.6807    0.0000 C   0  0  0  0  0  0  0  0  0  0  0  0
    3.4175   -3.7955    0.0000 O   0  0  0  0  0  0  0  0  0  0  0  0
    3.2954   -1.4672    0.0000 C   0  0  0  0  0  0  0  0  0  0  0  0
    4.7726   -1.2067    0.0000 C   0  0  0  0  0  0  0  0  0  0  0  0
    4.0903   -2.7393    0.0000 O   0  0  0  0  0  0  0  0  0  0  0  0
  1  2  1  0
  3  2  1  6
  3  4  1  0
  4  5  1  0
  5  6  2  0
  5  7  1  0
  7  8  1  1
  7  9  1  0
  9 10  1  6
 11 10  1  1
 11 12  1  0
 12 13  1  0
 13 14  1  6
 13 15  1  0
 15 16  1  0
 13 17  1  0
 17 18  1  6
 17 19  1  0
 19 20  1  6
 19 21  1  0
  9 22  1  0
 22 23  1  1
 22 24  1  0
 24 25  1  6
 26 25  1  1
 26 27  1  0
 27 28  1  0
 28 29  1  1
 28 30  1  0
 30 31  1  0
 31 32  1  1
 32 33  1  0
 32 34  1  0
 31 35  1  0
 35 36  1  6
 24 37  1  0
 37 38  1  6
 37 39  1  0
 37 40  1  0
 40 41  1  0
 41 42  1  6
 41 43  1  0
 43 44  1  0
 43 45  1  0
 45 46  1  0
 46 47  1  1
 46 48  1  0
 48 49  1  6
 48 50  1  0
 50 51  1  6
 50 52  1  0
 50  3  1  0
 21 11  1  0
 35 26  1  0
M  END
>  <ChEMBL_IDs>  (312) 
CHEMBL274365

>  <target_organism>  (312) 
None

>  <target_molecule_pref_name>  (312) 
nan

>  <# Known Targets>  (312) 
nan

>  <Known Targets>  (312) 
nan

>  <smiles>  (312) 
CC[C@H]1OC(=O)[C@H](C)[C@@H](O[C@H]2C[C@@](C)(OC)[C@H](O)[C@H](C)O2)[C@H](C)[C@@H](O[C@@H]2O[C@H](C)C[C@H](N(C)C)[C@H]2O)[C@](C)(O)C[C@@H](C)N(C)C[C@H](C)[C@@H](O)[C@]1(C)O

$$$$

     RDKit          2D

 52 54  0  0  0  0  0  0  0  0999 V2000
    5.8573   -1.2990    0.0000 C   0  0  0  0  0  0  0  0  0  0  0  0
    5.1073    0.0000    0.0000 C   0  0  0  0  0  0  0  0  0  0  0  0
    3.6073    0.0000    0.0000 C   0  0  0  0  0  0  0  0  0  0  0  0
    3.2954    1.4672    0.0000 O   0  0  0  0  0  0  0  0  0  0  0  0
    2.4138    2.6807    0.0000 C   0  0  0  0  0  0  0  0  0  0  0  0
    3.4175    3.7955    0.0000 O   0  0  0  0  0  0  0  0  0  0  0  0
    1.1147    3.4307    0.0000 C   0  0  0  0  0  0  0  0  0  0  0  0
    1.8302    4.5756    0.0000 C   0  0  0  0  0  0  0  0  0  0  0  0
   -0.3771    3.5875    0.0000 C   0  0  0  0  0  0  0  0  0  0  0  0
   -0.5339    5.0793    0.0000 O   0  0  0  0  0  0  0  0  0  0  0  0
    0.6797    5.9610    0.0000 C   0  0  0  0  0  0  0  0  0  0  0  0
    0.5229    7.4528    0.0000 C   0  0  0  0  0  0  0  0  0  0  0  0
    1.7364    8.3345    0.0000 C   0  0  0  0  0  0  0  0  0  0  0  0
    2.5752    9.5780    0.0000 C   0  0  0  0  0  0  0  0  0  0  0  0
    0.6574    9.3764    0.0000 O   0  0  0  0  0  0  0  0  0  0  0  0
    1.0203   10.8319    0.0000 C   0  0  0  0  0  0  0  0  0  0  0  0
    3.1067    7.7244    0.0000 C   0  0  0  0  0  0  0  0  0  0  0  0
    4.3202    8.6060    0.0000 O   0  0  0  0  0  0  0  0  0  0  0  0
    3.2635    6.2326    0.0000 C   0  0  0  0  0  0  0  0  0  0  0  0
    4.6338    5.6225    0.0000 C   0  0  0  0  0  0  0  0  0  0  0  0
    2.0500    5.3509    0.0000 O   0  0  0  0  0  0  0  0  0  0  0  0
   -1.8037    3.1240    0.0000 C   0  0  0  0  0  0  0  0  0  0  0  0
   -2.5537    4.4231    0.0000 C   0  0  0  0  0  0  0  0  0  0  0  0
   -2.9184    2.1203    0.0000 C   0  0  0  0  0  0  0  0  0  0  0  0
   -4.1319    3.0020    0.0000 O   0  0  0  0  0  0  0  0  0  0  0  0
   -5.5022    2.3919    0.0000 C   0  0  0  0  0  0  0  0  0  0  0  0
   -6.7157    3.2736    0.0000 O   0  0  0  0  0  0  0  0  0  0  0  0
   -8.0861    2.6635    0.0000 C   0  0  0  0  0  0  0  0  0  0  0  0
   -9.2996    3.5451    0.0000 C   0  0  0  0  0  0  0  0  0  0  0  0
   -8.2428    1.1717    0.0000 C   0  0  0  0  0  0  0  0  0  0  0  0
   -7.0293    0.2900    0.0000 C   0  0  0  0  0  0  0  0  0  0  0  0
   -7.1861   -1.2018    0.0000 N   0  0  0  0  0  0  0  0  0  0  0  0
   -8.5564   -1.8119    0.0000 C   0  0  0  0  0  0  0  0  0  0  0  0
   -5.9726   -2.0835    0.0000 C   0  0  0  0  0  0  0  0  0  0  0  0
   -5.6590    0.9001    0.0000 C   0  0  0  0  0  0  0  0  0  0  0  0
   -5.0760    0.3564    0.0000 O   0  0  0  0  0  0  0  0  0  0  0  0
   -3.5285    0.7500    0.0000 C   0  0  0  0  0  0  0  0  0  0  0  0
   -4.2257    0.3635    0.0000 C   0  0  0  0  0  0  0  0  0  0  0  0
   -4.5705    1.8290    0.0000 O   0  0  0  0  0  0  0  0  0  0  0  0
   -3.5285   -0.7500    0.0000 C   0  0  0  0  0  0  0  0  0  0  0  0
   -2.9184   -2.1203    0.0000 C   0  0  0  0  0  0  0  0  0  0  0  0
   -4.1319   -3.0020    0.0000 C   0  0  0  0  0  0  0  0  0  0  0  0
   -1.8037   -3.1240    0.0000 N   0  0  0  0  0  0  0  0  0  0  0  0
   -2.5537   -4.4231    0.0000 C   0  0  0  0  0  0  0  0  0  0  0  0
   -0.3771   -3.5875    0.0000 C   0  0  0  0  0  0  0  0  0  0  0  0
    1.1147   -3.4307    0.0000 C   0  0  0  0  0  0  0  0  0  0  0  0
    1.5782   -4.8573    0.0000 C   0  0  0  0  0  0  0  0  0  0  0  0
    2.4138   -2.6807    0.0000 C   0  0  0  0  0  0  0  0  0  0  0  0
    3.4175   -3.7955    0.0000 O   0  0  0  0  0  0  0  0  0  0  0  0
    3.2954   -1.4672    0.0000 C   0  0  0  0  0  0  0  0  0  0  0  0
    4.7726   -1.2067    0.0000 C   0  0  0  0  0  0  0  0  0  0  0  0
    4.0903   -2.7393    0.0000 O   0  0  0  0  0  0  0  0  0  0  0  0
  1  2  1  0
  3  2  1  6
  3  4  1  0
  4  5  1  0
  5  6  2  0
  5  7  1  0
  7  8  1  1
  7  9  1  0
  9 10  1  6
 11 10  1  1
 11 12  1  0
 12 13  1  0
 13 14  1  6
 13 15  1  0
 15 16  1  0
 13 17  1  0
 17 18  1  1
 17 19  1  0
 19 20  1  6
 19 21  1  0
  9 22  1  0
 22 23  1  1
 22 24  1  0
 24 25  1  6
 26 25  1  1
 26 27  1  0
 27 28  1  0
 28 29  1  1
 28 30  1  0
 30 31  1  0
 31 32  1  1
 32 33  1  0
 32 34  1  0
 31 35  1  0
 35 36  1  6
 24 37  1  0
 37 38  1  6
 37 39  1  0
 37 40  1  0
 40 41  1  0
 41 42  1  6
 41 43  1  0
 43 44  1  0
 43 45  1  0
 45 46  1  0
 46 47  1  1
 46 48  1  0
 48 49  1  6
 48 50  1  0
 50 51  1  6
 50 52  1  0
 50  3  1  0
 21 11  1  0
 35 26  1  0
M  END
>  <ChEMBL_IDs>  (313) 
CHEMBL273931

>  <target_organism>  (313) 
None

>  <target_molecule_pref_name>  (313) 
nan

>  <# Known Targets>  (313) 
nan

>  <Known Targets>  (313) 
nan

>  <smiles>  (313) 
CC[C@H]1OC(=O)[C@H](C)[C@@H](O[C@H]2C[C@@](C)(OC)[C@@H](O)[C@H](C)O2)[C@H](C)[C@@H](O[C@@H]2O[C@H](C)C[C@H](N(C)C)[C@H]2O)[C@](C)(O)C[C@@H](C)N(C)C[C@H](C)[C@@H](O)[C@]1(C)O

$$$$

     RDKit          2D

 52 54  0  0  0  0  0  0  0  0999 V2000
    5.8573   -1.2990    0.0000 C   0  0  0  0  0  0  0  0  0  0  0  0
    5.1073    0.0000    0.0000 C   0  0  0  0  0  0  0  0  0  0  0  0
    3.6073    0.0000    0.0000 C   0  0  0  0  0  0  0  0  0  0  0  0
    3.2954    1.4672    0.0000 O   0  0  0  0  0  0  0  0  0  0  0  0
    2.4138    2.6807    0.0000 C   0  0  0  0  0  0  0  0  0  0  0  0
    3.4175    3.7955    0.0000 O   0  0  0  0  0  0  0  0  0  0  0  0
    1.1147    3.4307    0.0000 C   0  0  0  0  0  0  0  0  0  0  0  0
    1.8302    4.5756    0.0000 C   0  0  0  0  0  0  0  0  0  0  0  0
   -0.3771    3.5875    0.0000 C   0  0  0  0  0  0  0  0  0  0  0  0
   -0.5339    5.0793    0.0000 O   0  0  0  0  0  0  0  0  0  0  0  0
    0.6797    5.9610    0.0000 C   0  0  0  0  0  0  0  0  0  0  0  0
    0.5229    7.4528    0.0000 C   0  0  0  0  0  0  0  0  0  0  0  0
    1.7364    8.3345    0.0000 C   0  0  0  0  0  0  0  0  0  0  0  0
    2.5752    9.5780    0.0000 C   0  0  0  0  0  0  0  0  0  0  0  0
    0.6574    9.3764    0.0000 O   0  0  0  0  0  0  0  0  0  0  0  0
    1.0203   10.8319    0.0000 C   0  0  0  0  0  0  0  0  0  0  0  0
    3.1067    7.7244    0.0000 C   0  0  0  0  0  0  0  0  0  0  0  0
    4.3202    8.6060    0.0000 O   0  0  0  0  0  0  0  0  0  0  0  0
    3.2635    6.2326    0.0000 C   0  0  0  0  0  0  0  0  0  0  0  0
    4.6338    5.6225    0.0000 C   0  0  0  0  0  0  0  0  0  0  0  0
    2.0500    5.3509    0.0000 O   0  0  0  0  0  0  0  0  0  0  0  0
   -1.8037    3.1240    0.0000 C   0  0  0  0  0  0  0  0  0  0  0  0
   -2.5537    4.4231    0.0000 C   0  0  0  0  0  0  0  0  0  0  0  0
   -2.9184    2.1203    0.0000 C   0  0  0  0  0  0  0  0  0  0  0  0
   -4.1319    3.0020    0.0000 O   0  0  0  0  0  0  0  0  0  0  0  0
   -5.5022    2.3919    0.0000 C   0  0  0  0  0  0  0  0  0  0  0  0
   -6.7157    3.2736    0.0000 O   0  0  0  0  0  0  0  0  0  0  0  0
   -8.0861    2.6635    0.0000 C   0  0  0  0  0  0  0  0  0  0  0  0
   -9.2996    3.5451    0.0000 C   0  0  0  0  0  0  0  0  0  0  0  0
   -8.2428    1.1717    0.0000 C   0  0  0  0  0  0  0  0  0  0  0  0
   -7.0293    0.2900    0.0000 C   0  0  0  0  0  0  0  0  0  0  0  0
   -7.1861   -1.2018    0.0000 N   0  0  0  0  0  0  0  0  0  0  0  0
   -8.5564   -1.8119    0.0000 C   0  0  0  0  0  0  0  0  0  0  0  0
   -5.9726   -2.0835    0.0000 C   0  0  0  0  0  0  0  0  0  0  0  0
   -5.6590    0.9001    0.0000 C   0  0  0  0  0  0  0  0  0  0  0  0
   -5.0760    0.3564    0.0000 O   0  0  0  0  0  0  0  0  0  0  0  0
   -3.5285    0.7500    0.0000 C   0  0  0  0  0  0  0  0  0  0  0  0
   -4.2257    0.3635    0.0000 C   0  0  0  0  0  0  0  0  0  0  0  0
   -4.5705    1.8290    0.0000 O   0  0  0  0  0  0  0  0  0  0  0  0
   -3.5285   -0.7500    0.0000 C   0  0  0  0  0  0  0  0  0  0  0  0
   -2.9184   -2.1203    0.0000 C   0  0  0  0  0  0  0  0  0  0  0  0
   -4.1319   -3.0020    0.0000 C   0  0  0  0  0  0  0  0  0  0  0  0
   -1.8037   -3.1240    0.0000 C   0  0  0  0  0  0  0  0  0  0  0  0
   -0.3771   -3.5875    0.0000 N   0  0  0  0  0  0  0  0  0  0  0  0
   -0.5339   -5.0793    0.0000 C   0  0  0  0  0  0  0  0  0  0  0  0
    1.1147   -3.4307    0.0000 C   0  0  0  0  0  0  0  0  0  0  0  0
    1.5782   -4.8573    0.0000 C   0  0  0  0  0  0  0  0  0  0  0  0
    2.4138   -2.6807    0.0000 C   0  0  0  0  0  0  0  0  0  0  0  0
    3.4175   -3.7955    0.0000 O   0  0  0  0  0  0  0  0  0  0  0  0
    3.2954   -1.4672    0.0000 C   0  0  0  0  0  0  0  0  0  0  0  0
    4.7726   -1.2067    0.0000 C   0  0  0  0  0  0  0  0  0  0  0  0
    4.0903   -2.7393    0.0000 O   0  0  0  0  0  0  0  0  0  0  0  0
  1  2  1  0
  3  2  1  6
  3  4  1  0
  4  5  1  0
  5  6  2  0
  5  7  1  0
  7  8  1  1
  7  9  1  0
  9 10  1  6
 11 10  1  1
 11 12  1  0
 12 13  1  0
 13 14  1  6
 13 15  1  0
 15 16  1  0
 13 17  1  0
 17 18  1  1
 17 19  1  0
 19 20  1  6
 19 21  1  0
  9 22  1  0
 22 23  1  1
 22 24  1  0
 24 25  1  6
 26 25  1  1
 26 27  1  0
 27 28  1  0
 28 29  1  1
 28 30  1  0
 30 31  1  0
 31 32  1  1
 32 33  1  0
 32 34  1  0
 31 35  1  0
 35 36  1  1
 24 37  1  0
 37 38  1  6
 37 39  1  0
 37 40  1  0
 40 41  1  0
 41 42  1  6
 41 43  1  0
 43 44  1  0
 44 45  1  0
 44 46  1  0
 46 47  1  1
 46 48  1  0
 48 49  1  6
 48 50  1  0
 50 51  1  6
 50 52  1  0
 50  3  1  0
 21 11  1  0
 35 26  1  0
M  END
>  <ChEMBL_IDs>  (314) 
CHEMBL3348928

>  <target_organism>  (314) 
Hepatitis C virus,None

>  <target_molecule_pref_name>  (314) 
nan

>  <# Known Targets>  (314) 
nan

>  <Known Targets>  (314) 
nan

>  <smiles>  (314) 
CC[C@H]1OC(=O)[C@H](C)[C@@H](O[C@H]2C[C@@](C)(OC)[C@@H](O)[C@H](C)O2)[C@H](C)[C@@H](O[C@@H]2O[C@H](C)C[C@H](N(C)C)[C@@H]2O)[C@](C)(O)C[C@@H](C)CN(C)[C@H](C)[C@@H](O)[C@]1(C)O

$$$$

     RDKit          2D

 52 54  0  0  0  0  0  0  0  0999 V2000
    5.8573   -1.2990    0.0000 C   0  0  0  0  0  0  0  0  0  0  0  0
    5.1073    0.0000    0.0000 C   0  0  0  0  0  0  0  0  0  0  0  0
    3.6073    0.0000    0.0000 C   0  0  0  0  0  0  0  0  0  0  0  0
    3.2954    1.4672    0.0000 O   0  0  0  0  0  0  0  0  0  0  0  0
    2.4138    2.6807    0.0000 C   0  0  0  0  0  0  0  0  0  0  0  0
    3.4175    3.7955    0.0000 O   0  0  0  0  0  0  0  0  0  0  0  0
    1.1147    3.4307    0.0000 C   0  0  0  0  0  0  0  0  0  0  0  0
    1.8302    4.5756    0.0000 C   0  0  0  0  0  0  0  0  0  0  0  0
   -0.3771    3.5875    0.0000 C   0  0  0  0  0  0  0  0  0  0  0  0
   -0.5339    5.0793    0.0000 O   0  0  0  0  0  0  0  0  0  0  0  0
    0.6797    5.9610    0.0000 C   0  0  0  0  0  0  0  0  0  0  0  0
    0.5229    7.4528    0.0000 C   0  0  0  0  0  0  0  0  0  0  0  0
    1.7364    8.3345    0.0000 C   0  0  0  0  0  0  0  0  0  0  0  0
    2.5752    9.5780    0.0000 C   0  0  0  0  0  0  0  0  0  0  0  0
    0.6574    9.3764    0.0000 O   0  0  0  0  0  0  0  0  0  0  0  0
    1.0203   10.8319    0.0000 C   0  0  0  0  0  0  0  0  0  0  0  0
    3.1067    7.7244    0.0000 C   0  0  0  0  0  0  0  0  0  0  0  0
    4.3202    8.6060    0.0000 O   0  0  0  0  0  0  0  0  0  0  0  0
    3.2635    6.2326    0.0000 C   0  0  0  0  0  0  0  0  0  0  0  0
    4.6338    5.6225    0.0000 C   0  0  0  0  0  0  0  0  0  0  0  0
    2.0500    5.3509    0.0000 O   0  0  0  0  0  0  0  0  0  0  0  0
   -1.8037    3.1240    0.0000 C   0  0  0  0  0  0  0  0  0  0  0  0
   -2.5537    4.4231    0.0000 C   0  0  0  0  0  0  0  0  0  0  0  0
   -2.9184    2.1203    0.0000 C   0  0  0  0  0  0  0  0  0  0  0  0
   -4.1319    3.0020    0.0000 O   0  0  0  0  0  0  0  0  0  0  0  0
   -5.5022    2.3919    0.0000 C   0  0  0  0  0  0  0  0  0  0  0  0
   -6.7157    3.2736    0.0000 O   0  0  0  0  0  0  0  0  0  0  0  0
   -8.0861    2.6635    0.0000 C   0  0  0  0  0  0  0  0  0  0  0  0
   -9.2996    3.5451    0.0000 C   0  0  0  0  0  0  0  0  0  0  0  0
   -8.2428    1.1717    0.0000 C   0  0  0  0  0  0  0  0  0  0  0  0
   -7.0293    0.2900    0.0000 C   0  0  0  0  0  0  0  0  0  0  0  0
   -7.1861   -1.2018    0.0000 N   0  0  0  0  0  0  0  0  0  0  0  0
   -8.5564   -1.8119    0.0000 C   0  0  0  0  0  0  0  0  0  0  0  0
   -5.9726   -2.0835    0.0000 C   0  0  0  0  0  0  0  0  0  0  0  0
   -5.6590    0.9001    0.0000 C   0  0  0  0  0  0  0  0  0  0  0  0
   -5.0760    0.3564    0.0000 O   0  0  0  0  0  0  0  0  0  0  0  0
   -3.5285    0.7500    0.0000 C   0  0  0  0  0  0  0  0  0  0  0  0
   -4.2257    0.3635    0.0000 C   0  0  0  0  0  0  0  0  0  0  0  0
   -4.5705    1.8290    0.0000 O   0  0  0  0  0  0  0  0  0  0  0  0
   -3.5285   -0.7500    0.0000 C   0  0  0  0  0  0  0  0  0  0  0  0
   -2.9184   -2.1203    0.0000 C   0  0  0  0  0  0  0  0  0  0  0  0
   -4.1319   -3.0020    0.0000 C   0  0  0  0  0  0  0  0  0  0  0  0
   -1.8037   -3.1240    0.0000 C   0  0  0  0  0  0  0  0  0  0  0  0
   -0.3771   -3.5875    0.0000 N   0  0  0  0  0  0  0  0  0  0  0  0
   -0.5339   -5.0793    0.0000 C   0  0  0  0  0  0  0  0  0  0  0  0
    1.1147   -3.4307    0.0000 C   0  0  0  0  0  0  0  0  0  0  0  0
    1.5782   -4.8573    0.0000 C   0  0  0  0  0  0  0  0  0  0  0  0
    2.4138   -2.6807    0.0000 C   0  0  0  0  0  0  0  0  0  0  0  0
    3.4175   -3.7955    0.0000 O   0  0  0  0  0  0  0  0  0  0  0  0
    3.2954   -1.4672    0.0000 C   0  0  0  0  0  0  0  0  0  0  0  0
    4.7726   -1.2067    0.0000 C   0  0  0  0  0  0  0  0  0  0  0  0
    4.0903   -2.7393    0.0000 O   0  0  0  0  0  0  0  0  0  0  0  0
  1  2  1  0
  3  2  1  6
  3  4  1  0
  4  5  1  0
  5  6  2  0
  5  7  1  0
  7  8  1  1
  7  9  1  0
  9 10  1  1
 11 10  1  1
 11 12  1  0
 12 13  1  0
 13 14  1  6
 13 15  1  0
 15 16  1  0
 13 17  1  0
 17 18  1  1
 17 19  1  0
 19 20  1  6
 19 21  1  0
  9 22  1  0
 22 23  1  1
 22 24  1  0
 24 25  1  6
 26 25  1  1
 26 27  1  0
 27 28  1  0
 28 29  1  1
 28 30  1  0
 30 31  1  0
 31 32  1  1
 32 33  1  0
 32 34  1  0
 31 35  1  0
 35 36  1  6
 24 37  1  0
 37 38  1  6
 37 39  1  0
 37 40  1  0
 40 41  1  0
 41 42  1  6
 41 43  1  0
 43 44  1  0
 44 45  1  0
 44 46  1  0
 46 47  1  1
 46 48  1  0
 48 49  1  1
 48 50  1  0
 50 51  1  6
 50 52  1  0
 50  3  1  0
 21 11  1  0
 35 26  1  0
M  END
>  <ChEMBL_IDs>  (315) 
CHEMBL4082834

>  <target_organism>  (315) 
Hepatitis C virus,None

>  <target_molecule_pref_name>  (315) 
nan

>  <# Known Targets>  (315) 
nan

>  <Known Targets>  (315) 
nan

>  <smiles>  (315) 
CC[C@H]1OC(=O)[C@H](C)[C@H](O[C@H]2C[C@@](C)(OC)[C@@H](O)[C@H](C)O2)[C@H](C)[C@@H](O[C@@H]2O[C@H](C)C[C@H](N(C)C)[C@H]2O)[C@](C)(O)C[C@@H](C)CN(C)[C@H](C)[C@H](O)[C@]1(C)O

$$$$

     RDKit          2D

 52 54  0  0  0  0  0  0  0  0999 V2000
    5.8573   -1.2990    0.0000 C   0  0  0  0  0  0  0  0  0  0  0  0
    5.1073    0.0000    0.0000 C   0  0  0  0  0  0  0  0  0  0  0  0
    3.6073    0.0000    0.0000 C   0  0  0  0  0  0  0  0  0  0  0  0
    3.2954    1.4672    0.0000 O   0  0  0  0  0  0  0  0  0  0  0  0
    2.4138    2.6807    0.0000 C   0  0  0  0  0  0  0  0  0  0  0  0
    3.4175    3.7955    0.0000 O   0  0  0  0  0  0  0  0  0  0  0  0
    1.1147    3.4307    0.0000 C   0  0  0  0  0  0  0  0  0  0  0  0
    1.8302    4.5756    0.0000 C   0  0  0  0  0  0  0  0  0  0  0  0
   -0.3771    3.5875    0.0000 C   0  0  0  0  0  0  0  0  0  0  0  0
   -0.5339    5.0793    0.0000 O   0  0  0  0  0  0  0  0  0  0  0  0
    0.6797    5.9610    0.0000 C   0  0  0  0  0  0  0  0  0  0  0  0
    0.5229    7.4528    0.0000 C   0  0  0  0  0  0  0  0  0  0  0  0
    1.7364    8.3345    0.0000 C   0  0  0  0  0  0  0  0  0  0  0  0
    2.5752    9.5780    0.0000 C   0  0  0  0  0  0  0  0  0  0  0  0
    0.6574    9.3764    0.0000 O   0  0  0  0  0  0  0  0  0  0  0  0
    1.0203   10.8319    0.0000 C   0  0  0  0  0  0  0  0  0  0  0  0
    3.1067    7.7244    0.0000 C   0  0  0  0  0  0  0  0  0  0  0  0
    4.3202    8.6060    0.0000 O   0  0  0  0  0  0  0  0  0  0  0  0
    3.2635    6.2326    0.0000 C   0  0  0  0  0  0  0  0  0  0  0  0
    4.6338    5.6225    0.0000 C   0  0  0  0  0  0  0  0  0  0  0  0
    2.0500    5.3509    0.0000 O   0  0  0  0  0  0  0  0  0  0  0  0
   -1.8037    3.1240    0.0000 C   0  0  0  0  0  0  0  0  0  0  0  0
   -2.5537    4.4231    0.0000 C   0  0  0  0  0  0  0  0  0  0  0  0
   -2.9184    2.1203    0.0000 C   0  0  0  0  0  0  0  0  0  0  0  0
   -4.1319    3.0020    0.0000 O   0  0  0  0  0  0  0  0  0  0  0  0
   -5.5022    2.3919    0.0000 C   0  0  0  0  0  0  0  0  0  0  0  0
   -6.7157    3.2736    0.0000 O   0  0  0  0  0  0  0  0  0  0  0  0
   -8.0861    2.6635    0.0000 C   0  0  0  0  0  0  0  0  0  0  0  0
   -9.2996    3.5451    0.0000 C   0  0  0  0  0  0  0  0  0  0  0  0
   -8.2428    1.1717    0.0000 C   0  0  0  0  0  0  0  0  0  0  0  0
   -7.0293    0.2900    0.0000 C   0  0  0  0  0  0  0  0  0  0  0  0
   -7.1861   -1.2018    0.0000 N   0  0  0  0  0  0  0  0  0  0  0  0
   -8.5564   -1.8119    0.0000 C   0  0  0  0  0  0  0  0  0  0  0  0
   -5.9726   -2.0835    0.0000 C   0  0  0  0  0  0  0  0  0  0  0  0
   -5.6590    0.9001    0.0000 C   0  0  0  0  0  0  0  0  0  0  0  0
   -5.0760    0.3564    0.0000 O   0  0  0  0  0  0  0  0  0  0  0  0
   -3.5285    0.7500    0.0000 C   0  0  0  0  0  0  0  0  0  0  0  0
   -4.2257    0.3635    0.0000 C   0  0  0  0  0  0  0  0  0  0  0  0
   -4.5705    1.8290    0.0000 O   0  0  0  0  0  0  0  0  0  0  0  0
   -3.5285   -0.7500    0.0000 C   0  0  0  0  0  0  0  0  0  0  0  0
   -2.9184   -2.1203    0.0000 C   0  0  0  0  0  0  0  0  0  0  0  0
   -4.1319   -3.0020    0.0000 C   0  0  0  0  0  0  0  0  0  0  0  0
   -1.8037   -3.1240    0.0000 C   0  0  0  0  0  0  0  0  0  0  0  0
   -0.3771   -3.5875    0.0000 N   0  0  0  0  0  0  0  0  0  0  0  0
   -0.5339   -5.0793    0.0000 C   0  0  0  0  0  0  0  0  0  0  0  0
    1.1147   -3.4307    0.0000 C   0  0  0  0  0  0  0  0  0  0  0  0
    1.5782   -4.8573    0.0000 C   0  0  0  0  0  0  0  0  0  0  0  0
    2.4138   -2.6807    0.0000 C   0  0  0  0  0  0  0  0  0  0  0  0
    3.4175   -3.7955    0.0000 O   0  0  0  0  0  0  0  0  0  0  0  0
    3.2954   -1.4672    0.0000 C   0  0  0  0  0  0  0  0  0  0  0  0
    4.7726   -1.2067    0.0000 C   0  0  0  0  0  0  0  0  0  0  0  0
    4.0903   -2.7393    0.0000 O   0  0  0  0  0  0  0  0  0  0  0  0
  1  2  1  0
  3  2  1  6
  3  4  1  0
  4  5  1  0
  5  6  2  0
  5  7  1  0
  7  8  1  1
  7  9  1  0
  9 10  1  6
 11 10  1  1
 11 12  1  0
 12 13  1  0
 13 14  1  6
 13 15  1  0
 15 16  1  0
 13 17  1  0
 17 18  1  1
 17 19  1  0
 19 20  1  6
 19 21  1  0
  9 22  1  0
 22 23  1  0
 22 24  1  0
 24 25  1  6
 26 25  1  1
 26 27  1  0
 27 28  1  0
 28 29  1  1
 28 30  1  0
 30 31  1  0
 31 32  1  1
 32 33  1  0
 32 34  1  0
 31 35  1  0
 35 36  1  6
 24 37  1  0
 37 38  1  6
 37 39  1  0
 37 40  1  0
 40 41  1  0
 41 42  1  6
 41 43  1  0
 43 44  1  0
 44 45  1  0
 44 46  1  0
 46 47  1  1
 46 48  1  0
 48 49  1  6
 48 50  1  0
 50 51  1  6
 50 52  1  0
 50  3  1  0
 21 11  1  0
 35 26  1  0
M  END
>  <ChEMBL_IDs>  (316) 
nan

>  <target_organism>  (316) 
nan

>  <target_molecule_pref_name>  (316) 
nan

>  <# Known Targets>  (316) 
nan

>  <Known Targets>  (316) 
nan

>  <smiles>  (316) 
CC[C@H]1OC(=O)[C@H](C)[C@@H](O[C@H]2C[C@@](C)(OC)[C@@H](O)[C@H](C)O2)C(C)[C@@H](O[C@@H]2O[C@H](C)C[C@H](N(C)C)[C@H]2O)[C@](C)(O)C[C@@H](C)CN(C)[C@H](C)[C@@H](O)[C@]1(C)O

$$$$

     RDKit          2D

 52 54  0  0  0  0  0  0  0  0999 V2000
    5.8573   -1.2990    0.0000 C   0  0  0  0  0  0  0  0  0  0  0  0
    5.1073    0.0000    0.0000 C   0  0  0  0  0  0  0  0  0  0  0  0
    3.6073    0.0000    0.0000 C   0  0  0  0  0  0  0  0  0  0  0  0
    3.2954    1.4672    0.0000 O   0  0  0  0  0  0  0  0  0  0  0  0
    2.4138    2.6807    0.0000 C   0  0  0  0  0  0  0  0  0  0  0  0
    3.4175    3.7955    0.0000 O   0  0  0  0  0  0  0  0  0  0  0  0
    1.1147    3.4307    0.0000 C   0  0  0  0  0  0  0  0  0  0  0  0
    1.8302    4.5756    0.0000 C   0  0  0  0  0  0  0  0  0  0  0  0
   -0.3771    3.5875    0.0000 C   0  0  0  0  0  0  0  0  0  0  0  0
   -0.5339    5.0793    0.0000 O   0  0  0  0  0  0  0  0  0  0  0  0
    0.6797    5.9610    0.0000 C   0  0  0  0  0  0  0  0  0  0  0  0
    0.5229    7.4528    0.0000 C   0  0  0  0  0  0  0  0  0  0  0  0
    1.7364    8.3345    0.0000 C   0  0  0  0  0  0  0  0  0  0  0  0
    2.5752    9.5780    0.0000 C   0  0  0  0  0  0  0  0  0  0  0  0
    0.6574    9.3764    0.0000 O   0  0  0  0  0  0  0  0  0  0  0  0
    1.0203   10.8319    0.0000 C   0  0  0  0  0  0  0  0  0  0  0  0
    3.1067    7.7244    0.0000 C   0  0  0  0  0  0  0  0  0  0  0  0
    4.3202    8.6060    0.0000 O   0  0  0  0  0  0  0  0  0  0  0  0
    3.2635    6.2326    0.0000 C   0  0  0  0  0  0  0  0  0  0  0  0
    4.6338    5.6225    0.0000 C   0  0  0  0  0  0  0  0  0  0  0  0
    2.0500    5.3509    0.0000 O   0  0  0  0  0  0  0  0  0  0  0  0
   -1.8037    3.1240    0.0000 C   0  0  0  0  0  0  0  0  0  0  0  0
   -2.5537    4.4231    0.0000 C   0  0  0  0  0  0  0  0  0  0  0  0
   -2.9184    2.1203    0.0000 C   0  0  0  0  0  0  0  0  0  0  0  0
   -4.1319    3.0020    0.0000 O   0  0  0  0  0  0  0  0  0  0  0  0
   -5.5022    2.3919    0.0000 C   0  0  0  0  0  0  0  0  0  0  0  0
   -6.7157    3.2736    0.0000 O   0  0  0  0  0  0  0  0  0  0  0  0
   -8.0861    2.6635    0.0000 C   0  0  0  0  0  0  0  0  0  0  0  0
   -9.2996    3.5451    0.0000 C   0  0  0  0  0  0  0  0  0  0  0  0
   -8.2428    1.1717    0.0000 C   0  0  0  0  0  0  0  0  0  0  0  0
   -7.0293    0.2900    0.0000 C   0  0  0  0  0  0  0  0  0  0  0  0
   -7.1861   -1.2018    0.0000 N   0  0  0  0  0  0  0  0  0  0  0  0
   -8.5564   -1.8119    0.0000 C   0  0  0  0  0  0  0  0  0  0  0  0
   -5.9726   -2.0835    0.0000 C   0  0  0  0  0  0  0  0  0  0  0  0
   -5.6590    0.9001    0.0000 C   0  0  0  0  0  0  0  0  0  0  0  0
   -5.0760    0.3564    0.0000 O   0  0  0  0  0  0  0  0  0  0  0  0
   -3.5285    0.7500    0.0000 C   0  0  0  0  0  0  0  0  0  0  0  0
   -4.2257    0.3635    0.0000 C   0  0  0  0  0  0  0  0  0  0  0  0
   -4.5705    1.8290    0.0000 O   0  0  0  0  0  0  0  0  0  0  0  0
   -3.5285   -0.7500    0.0000 C   0  0  0  0  0  0  0  0  0  0  0  0
   -2.9184   -2.1203    0.0000 C   0  0  0  0  0  0  0  0  0  0  0  0
   -4.1319   -3.0020    0.0000 C   0  0  0  0  0  0  0  0  0  0  0  0
   -1.8037   -3.1240    0.0000 C   0  0  0  0  0  0  0  0  0  0  0  0
   -0.3771   -3.5875    0.0000 N   0  0  0  0  0  0  0  0  0  0  0  0
   -0.5339   -5.0793    0.0000 C   0  0  0  0  0  0  0  0  0  0  0  0
    1.1147   -3.4307    0.0000 C   0  0  0  0  0  0  0  0  0  0  0  0
    1.5782   -4.8573    0.0000 C   0  0  0  0  0  0  0  0  0  0  0  0
    2.4138   -2.6807    0.0000 C   0  0  0  0  0  0  0  0  0  0  0  0
    3.4175   -3.7955    0.0000 O   0  0  0  0  0  0  0  0  0  0  0  0
    3.2954   -1.4672    0.0000 C   0  0  0  0  0  0  0  0  0  0  0  0
    4.7726   -1.2067    0.0000 C   0  0  0  0  0  0  0  0  0  0  0  0
    4.0903   -2.7393    0.0000 O   0  0  0  0  0  0  0  0  0  0  0  0
  1  2  1  0
  2  3  1  0
  3  4  1  0
  4  5  1  0
  5  6  2  0
  5  7  1  0
  7  8  1  0
  7  9  1  0
  9 10  1  6
 11 10  1  1
 11 12  1  0
 12 13  1  0
 13 14  1  6
 13 15  1  0
 15 16  1  0
 13 17  1  0
 17 18  1  0
 17 19  1  0
 19 20  1  0
 19 21  1  0
  9 22  1  0
 22 23  1  0
 22 24  1  0
 24 25  1  6
 26 25  1  1
 26 27  1  0
 27 28  1  0
 28 29  1  0
 28 30  1  0
 30 31  1  0
 31 32  1  0
 32 33  1  0
 32 34  1  0
 31 35  1  0
 35 36  1  0
 24 37  1  0
 37 38  1  1
 37 39  1  0
 37 40  1  0
 40 41  1  0
 41 42  1  0
 41 43  1  0
 43 44  1  0
 44 45  1  0
 44 46  1  0
 46 47  1  0
 46 48  1  0
 48 49  1  0
 48 50  1  0
 50 51  1  6
 50 52  1  0
 50  3  1  0
 21 11  1  0
 35 26  1  0
M  END
>  <ChEMBL_IDs>  (317) 
CHEMBL2361091

>  <target_organism>  (317) 
Homo sapiens

>  <target_molecule_pref_name>  (317) 
nan

>  <# Known Targets>  (317) 
nan

>  <Known Targets>  (317) 
nan

>  <smiles>  (317) 
CCC1OC(=O)C(C)[C@@H](O[C@H]2C[C@@](C)(OC)C(O)C(C)O2)C(C)[C@@H](O[C@@H]2OC(C)CC(N(C)C)C2O)[C@@](C)(O)CC(C)CN(C)C(C)C(O)[C@]1(C)O

$$$$

     RDKit          2D

 52 54  0  0  0  0  0  0  0  0999 V2000
    5.8573   -1.2990    0.0000 C   0  0  0  0  0  0  0  0  0  0  0  0
    5.1073    0.0000    0.0000 C   0  0  0  0  0  0  0  0  0  0  0  0
    3.6073    0.0000    0.0000 C   0  0  0  0  0  0  0  0  0  0  0  0
    3.2954    1.4672    0.0000 O   0  0  0  0  0  0  0  0  0  0  0  0
    2.4138    2.6807    0.0000 C   0  0  0  0  0  0  0  0  0  0  0  0
    3.4175    3.7955    0.0000 O   0  0  0  0  0  0  0  0  0  0  0  0
    1.1147    3.4307    0.0000 C   0  0  0  0  0  0  0  0  0  0  0  0
    1.8302    4.5756    0.0000 C   0  0  0  0  0  0  0  0  0  0  0  0
   -0.3771    3.5875    0.0000 C   0  0  0  0  0  0  0  0  0  0  0  0
   -0.5339    5.0793    0.0000 O   0  0  0  0  0  0  0  0  0  0  0  0
    0.6797    5.9610    0.0000 C   0  0  0  0  0  0  0  0  0  0  0  0
    0.5229    7.4528    0.0000 C   0  0  0  0  0  0  0  0  0  0  0  0
    1.7364    8.3345    0.0000 C   0  0  0  0  0  0  0  0  0  0  0  0
    2.5752    9.5780    0.0000 C   0  0  0  0  0  0  0  0  0  0  0  0
    0.6574    9.3764    0.0000 O   0  0  0  0  0  0  0  0  0  0  0  0
    1.0203   10.8319    0.0000 C   0  0  0  0  0  0  0  0  0  0  0  0
    3.1067    7.7244    0.0000 C   0  0  0  0  0  0  0  0  0  0  0  0
    4.3202    8.6060    0.0000 N   0  0  0  0  0  0  0  0  0  0  0  0
    3.2635    6.2326    0.0000 C   0  0  0  0  0  0  0  0  0  0  0  0
    4.6338    5.6225    0.0000 C   0  0  0  0  0  0  0  0  0  0  0  0
    2.0500    5.3509    0.0000 O   0  0  0  0  0  0  0  0  0  0  0  0
   -1.8037    3.1240    0.0000 C   0  0  0  0  0  0  0  0  0  0  0  0
   -2.5537    4.4231    0.0000 C   0  0  0  0  0  0  0  0  0  0  0  0
   -2.9184    2.1203    0.0000 C   0  0  0  0  0  0  0  0  0  0  0  0
   -4.1319    3.0020    0.0000 O   0  0  0  0  0  0  0  0  0  0  0  0
   -5.5022    2.3919    0.0000 C   0  0  0  0  0  0  0  0  0  0  0  0
   -6.7157    3.2736    0.0000 O   0  0  0  0  0  0  0  0  0  0  0  0
   -8.0861    2.6635    0.0000 C   0  0  0  0  0  0  0  0  0  0  0  0
   -9.2996    3.5451    0.0000 C   0  0  0  0  0  0  0  0  0  0  0  0
   -8.2428    1.1717    0.0000 C   0  0  0  0  0  0  0  0  0  0  0  0
   -7.0293    0.2900    0.0000 C   0  0  0  0  0  0  0  0  0  0  0  0
   -7.1861   -1.2018    0.0000 N   0  0  0  0  0  0  0  0  0  0  0  0
   -8.5564   -1.8119    0.0000 C   0  0  0  0  0  0  0  0  0  0  0  0
   -5.9726   -2.0835    0.0000 C   0  0  0  0  0  0  0  0  0  0  0  0
   -5.6590    0.9001    0.0000 C   0  0  0  0  0  0  0  0  0  0  0  0
   -5.0760    0.3564    0.0000 O   0  0  0  0  0  0  0  0  0  0  0  0
   -3.5285    0.7500    0.0000 C   0  0  0  0  0  0  0  0  0  0  0  0
   -4.2257    0.3635    0.0000 C   0  0  0  0  0  0  0  0  0  0  0  0
   -4.5705    1.8290    0.0000 O   0  0  0  0  0  0  0  0  0  0  0  0
   -3.5285   -0.7500    0.0000 C   0  0  0  0  0  0  0  0  0  0  0  0
   -2.9184   -2.1203    0.0000 C   0  0  0  0  0  0  0  0  0  0  0  0
   -4.1319   -3.0020    0.0000 C   0  0  0  0  0  0  0  0  0  0  0  0
   -1.8037   -3.1240    0.0000 N   0  0  0  0  0  0  0  0  0  0  0  0
   -2.5537   -4.4231    0.0000 C   0  0  0  0  0  0  0  0  0  0  0  0
   -0.3771   -3.5875    0.0000 C   0  0  0  0  0  0  0  0  0  0  0  0
    1.1147   -3.4307    0.0000 C   0  0  0  0  0  0  0  0  0  0  0  0
    1.5782   -4.8573    0.0000 C   0  0  0  0  0  0  0  0  0  0  0  0
    2.4138   -2.6807    0.0000 C   0  0  0  0  0  0  0  0  0  0  0  0
    3.4175   -3.7955    0.0000 O   0  0  0  0  0  0  0  0  0  0  0  0
    3.2954   -1.4672    0.0000 C   0  0  0  0  0  0  0  0  0  0  0  0
    4.7726   -1.2067    0.0000 C   0  0  0  0  0  0  0  0  0  0  0  0
    4.0903   -2.7393    0.0000 O   0  0  0  0  0  0  0  0  0  0  0  0
  1  2  1  0
  3  2  1  6
  3  4  1  0
  4  5  1  0
  5  6  2  0
  5  7  1  0
  7  8  1  1
  7  9  1  0
  9 10  1  6
 11 10  1  1
 11 12  1  0
 12 13  1  0
 13 14  1  6
 13 15  1  0
 15 16  1  0
 13 17  1  0
 17 18  1  1
 17 19  1  0
 19 20  1  6
 19 21  1  0
  9 22  1  0
 22 23  1  1
 22 24  1  0
 24 25  1  6
 26 25  1  1
 26 27  1  0
 27 28  1  0
 28 29  1  1
 28 30  1  0
 30 31  1  0
 31 32  1  1
 32 33  1  0
 32 34  1  0
 31 35  1  0
 35 36  1  6
 24 37  1  0
 37 38  1  6
 37 39  1  0
 37 40  1  0
 40 41  1  0
 41 42  1  6
 41 43  1  0
 43 44  1  0
 43 45  1  0
 45 46  1  0
 46 47  1  1
 46 48  1  0
 48 49  1  6
 48 50  1  0
 50 51  1  6
 50 52  1  0
 50  3  1  0
 21 11  1  0
 35 26  1  0
M  END
>  <ChEMBL_IDs>  (318) 
CHEMBL3941225

>  <target_organism>  (318) 
Hepatitis C virus,None

>  <target_molecule_pref_name>  (318) 
nan

>  <# Known Targets>  (318) 
nan

>  <Known Targets>  (318) 
nan

>  <smiles>  (318) 
CC[C@H]1OC(=O)[C@H](C)[C@@H](O[C@H]2C[C@@](C)(OC)[C@@H](N)[C@H](C)O2)[C@H](C)[C@@H](O[C@@H]2O[C@H](C)C[C@H](N(C)C)[C@H]2O)[C@](C)(O)C[C@@H](C)N(C)C[C@H](C)[C@@H](O)[C@]1(C)O

$$$$

     RDKit          2D

 52 54  0  0  0  0  0  0  0  0999 V2000
    5.8573   -1.2990    0.0000 C   0  0  0  0  0  0  0  0  0  0  0  0
    5.1073    0.0000    0.0000 C   0  0  0  0  0  0  0  0  0  0  0  0
    3.6073    0.0000    0.0000 C   0  0  0  0  0  0  0  0  0  0  0  0
    3.2954    1.4672    0.0000 O   0  0  0  0  0  0  0  0  0  0  0  0
    2.4138    2.6807    0.0000 C   0  0  0  0  0  0  0  0  0  0  0  0
    3.4175    3.7955    0.0000 O   0  0  0  0  0  0  0  0  0  0  0  0
    1.1147    3.4307    0.0000 C   0  0  0  0  0  0  0  0  0  0  0  0
    1.8302    4.5756    0.0000 C   0  0  0  0  0  0  0  0  0  0  0  0
   -0.3771    3.5875    0.0000 C   0  0  0  0  0  0  0  0  0  0  0  0
   -0.5339    5.0793    0.0000 O   0  0  0  0  0  0  0  0  0  0  0  0
    0.6797    5.9610    0.0000 C   0  0  0  0  0  0  0  0  0  0  0  0
    0.5229    7.4528    0.0000 C   0  0  0  0  0  0  0  0  0  0  0  0
    1.7364    8.3345    0.0000 C   0  0  0  0  0  0  0  0  0  0  0  0
    2.5752    9.5780    0.0000 C   0  0  0  0  0  0  0  0  0  0  0  0
    0.6574    9.3764    0.0000 O   0  0  0  0  0  0  0  0  0  0  0  0
    1.0203   10.8319    0.0000 C   0  0  0  0  0  0  0  0  0  0  0  0
    3.1067    7.7244    0.0000 C   0  0  0  0  0  0  0  0  0  0  0  0
    4.3202    8.6060    0.0000 N   0  0  0  0  0  0  0  0  0  0  0  0
    3.2635    6.2326    0.0000 C   0  0  0  0  0  0  0  0  0  0  0  0
    4.6338    5.6225    0.0000 C   0  0  0  0  0  0  0  0  0  0  0  0
    2.0500    5.3509    0.0000 O   0  0  0  0  0  0  0  0  0  0  0  0
   -1.8037    3.1240    0.0000 C   0  0  0  0  0  0  0  0  0  0  0  0
   -2.5537    4.4231    0.0000 C   0  0  0  0  0  0  0  0  0  0  0  0
   -2.9184    2.1203    0.0000 C   0  0  0  0  0  0  0  0  0  0  0  0
   -4.1319    3.0020    0.0000 O   0  0  0  0  0  0  0  0  0  0  0  0
   -5.5022    2.3919    0.0000 C   0  0  0  0  0  0  0  0  0  0  0  0
   -6.7157    3.2736    0.0000 O   0  0  0  0  0  0  0  0  0  0  0  0
   -8.0861    2.6635    0.0000 C   0  0  0  0  0  0  0  0  0  0  0  0
   -9.2996    3.5451    0.0000 C   0  0  0  0  0  0  0  0  0  0  0  0
   -8.2428    1.1717    0.0000 C   0  0  0  0  0  0  0  0  0  0  0  0
   -7.0293    0.2900    0.0000 C   0  0  0  0  0  0  0  0  0  0  0  0
   -7.1861   -1.2018    0.0000 N   0  0  0  0  0  0  0  0  0  0  0  0
   -8.5564   -1.8119    0.0000 C   0  0  0  0  0  0  0  0  0  0  0  0
   -5.9726   -2.0835    0.0000 C   0  0  0  0  0  0  0  0  0  0  0  0
   -5.6590    0.9001    0.0000 C   0  0  0  0  0  0  0  0  0  0  0  0
   -5.0760    0.3564    0.0000 O   0  0  0  0  0  0  0  0  0  0  0  0
   -3.5285    0.7500    0.0000 C   0  0  0  0  0  0  0  0  0  0  0  0
   -4.2257    0.3635    0.0000 C   0  0  0  0  0  0  0  0  0  0  0  0
   -4.5705    1.8290    0.0000 O   0  0  0  0  0  0  0  0  0  0  0  0
   -3.5285   -0.7500    0.0000 C   0  0  0  0  0  0  0  0  0  0  0  0
   -2.9184   -2.1203    0.0000 C   0  0  0  0  0  0  0  0  0  0  0  0
   -4.1319   -3.0020    0.0000 C   0  0  0  0  0  0  0  0  0  0  0  0
   -1.8037   -3.1240    0.0000 N   0  0  0  0  0  0  0  0  0  0  0  0
   -2.5537   -4.4231    0.0000 C   0  0  0  0  0  0  0  0  0  0  0  0
   -0.3771   -3.5875    0.0000 C   0  0  0  0  0  0  0  0  0  0  0  0
    1.1147   -3.4307    0.0000 C   0  0  0  0  0  0  0  0  0  0  0  0
    1.5782   -4.8573    0.0000 C   0  0  0  0  0  0  0  0  0  0  0  0
    2.4138   -2.6807    0.0000 C   0  0  0  0  0  0  0  0  0  0  0  0
    3.4175   -3.7955    0.0000 O   0  0  0  0  0  0  0  0  0  0  0  0
    3.2954   -1.4672    0.0000 C   0  0  0  0  0  0  0  0  0  0  0  0
    4.7726   -1.2067    0.0000 C   0  0  0  0  0  0  0  0  0  0  0  0
    4.0903   -2.7393    0.0000 O   0  0  0  0  0  0  0  0  0  0  0  0
  1  2  1  0
  3  2  1  6
  3  4  1  0
  4  5  1  0
  5  6  2  0
  5  7  1  0
  7  8  1  1
  7  9  1  0
  9 10  1  6
 11 10  1  1
 11 12  1  0
 12 13  1  0
 13 14  1  6
 13 15  1  0
 15 16  1  0
 13 17  1  0
 17 18  1  0
 17 19  1  0
 19 20  1  6
 19 21  1  0
  9 22  1  0
 22 23  1  1
 22 24  1  0
 24 25  1  6
 26 25  1  1
 26 27  1  0
 27 28  1  0
 28 29  1  1
 28 30  1  0
 30 31  1  0
 31 32  1  1
 32 33  1  0
 32 34  1  0
 31 35  1  0
 35 36  1  6
 24 37  1  0
 37 38  1  6
 37 39  1  0
 37 40  1  0
 40 41  1  0
 41 42  1  6
 41 43  1  0
 43 44  1  0
 43 45  1  0
 45 46  1  0
 46 47  1  1
 46 48  1  0
 48 49  1  6
 48 50  1  0
 50 51  1  6
 50 52  1  0
 50  3  1  0
 21 11  1  0
 35 26  1  0
M  END
>  <ChEMBL_IDs>  (319) 
CHEMBL268002

>  <target_organism>  (319) 
Homo sapiens,None

>  <target_molecule_pref_name>  (319) 
nan

>  <# Known Targets>  (319) 
nan

>  <Known Targets>  (319) 
nan

>  <smiles>  (319) 
CC[C@H]1OC(=O)[C@H](C)[C@@H](O[C@H]2C[C@@](C)(OC)C(N)[C@H](C)O2)[C@H](C)[C@@H](O[C@@H]2O[C@H](C)C[C@H](N(C)C)[C@H]2O)[C@](C)(O)C[C@@H](C)N(C)C[C@H](C)[C@@H](O)[C@]1(C)O

$$$$

     RDKit          2D

 53 55  0  0  0  0  0  0  0  0999 V2000
    5.8573   -1.2990    0.0000 C   0  0  0  0  0  0  0  0  0  0  0  0
    5.1073    0.0000    0.0000 C   0  0  0  0  0  0  0  0  0  0  0  0
    3.6073    0.0000    0.0000 C   0  0  0  0  0  0  0  0  0  0  0  0
    3.2954    1.4672    0.0000 O   0  0  0  0  0  0  0  0  0  0  0  0
    2.4138    2.6807    0.0000 C   0  0  0  0  0  0  0  0  0  0  0  0
    3.4175    3.7955    0.0000 O   0  0  0  0  0  0  0  0  0  0  0  0
    1.1147    3.4307    0.0000 C   0  0  0  0  0  0  0  0  0  0  0  0
    1.8302    4.5756    0.0000 C   0  0  0  0  0  0  0  0  0  0  0  0
   -0.3771    3.5875    0.0000 C   0  0  0  0  0  0  0  0  0  0  0  0
   -0.5339    5.0793    0.0000 O   0  0  0  0  0  0  0  0  0  0  0  0
    0.6797    5.9610    0.0000 C   0  0  0  0  0  0  0  0  0  0  0  0
    0.5229    7.4528    0.0000 C   0  0  0  0  0  0  0  0  0  0  0  0
    1.7364    8.3345    0.0000 C   0  0  0  0  0  0  0  0  0  0  0  0
    2.5752    9.5780    0.0000 C   0  0  0  0  0  0  0  0  0  0  0  0
    0.6574    9.3764    0.0000 O   0  0  0  0  0  0  0  0  0  0  0  0
    1.0203   10.8319    0.0000 C   0  0  0  0  0  0  0  0  0  0  0  0
    3.1067    7.7244    0.0000 C   0  0  0  0  0  0  0  0  0  0  0  0
    3.4696    9.1798    0.0000 O   0  0  0  0  0  0  0  0  0  0  0  0
    4.6031    7.6197    0.0000 C   0  0  0  0  0  0  0  0  0  0  0  0
    5.4419    8.8633    0.0000 N   0  0  0  0  0  0  0  0  0  0  0  0
    3.2635    6.2326    0.0000 C   0  0  0  0  0  0  0  0  0  0  0  0
    4.6338    5.6225    0.0000 C   0  0  0  0  0  0  0  0  0  0  0  0
    2.0500    5.3509    0.0000 O   0  0  0  0  0  0  0  0  0  0  0  0
   -1.8037    3.1240    0.0000 C   0  0  0  0  0  0  0  0  0  0  0  0
   -2.5537    4.4231    0.0000 C   0  0  0  0  0  0  0  0  0  0  0  0
   -2.9184    2.1203    0.0000 C   0  0  0  0  0  0  0  0  0  0  0  0
   -4.1319    3.0020    0.0000 O   0  0  0  0  0  0  0  0  0  0  0  0
   -5.5022    2.3919    0.0000 C   0  0  0  0  0  0  0  0  0  0  0  0
   -6.7157    3.2736    0.0000 O   0  0  0  0  0  0  0  0  0  0  0  0
   -8.0861    2.6635    0.0000 C   0  0  0  0  0  0  0  0  0  0  0  0
   -9.2996    3.5451    0.0000 C   0  0  0  0  0  0  0  0  0  0  0  0
   -8.2428    1.1717    0.0000 C   0  0  0  0  0  0  0  0  0  0  0  0
   -7.0293    0.2900    0.0000 C   0  0  0  0  0  0  0  0  0  0  0  0
   -7.1861   -1.2018    0.0000 N   0  0  0  0  0  0  0  0  0  0  0  0
   -8.5564   -1.8119    0.0000 C   0  0  0  0  0  0  0  0  0  0  0  0
   -5.9726   -2.0835    0.0000 C   0  0  0  0  0  0  0  0  0  0  0  0
   -5.6590    0.9001    0.0000 C   0  0  0  0  0  0  0  0  0  0  0  0
   -5.0760    0.3564    0.0000 O   0  0  0  0  0  0  0  0  0  0  0  0
   -3.5285    0.7500    0.0000 C   0  0  0  0  0  0  0  0  0  0  0  0
   -4.2257    0.3635    0.0000 C   0  0  0  0  0  0  0  0  0  0  0  0
   -4.5705    1.8290    0.0000 O   0  0  0  0  0  0  0  0  0  0  0  0
   -3.5285   -0.7500    0.0000 C   0  0  0  0  0  0  0  0  0  0  0  0
   -2.9184   -2.1203    0.0000 C   0  0  0  0  0  0  0  0  0  0  0  0
   -4.1319   -3.0020    0.0000 C   0  0  0  0  0  0  0  0  0  0  0  0
   -1.8037   -3.1240    0.0000 C   0  0  0  0  0  0  0  0  0  0  0  0
   -0.3771   -3.5875    0.0000 N   0  0  0  0  0  0  0  0  0  0  0  0
    1.1147   -3.4307    0.0000 C   0  0  0  0  0  0  0  0  0  0  0  0
    1.5782   -4.8573    0.0000 C   0  0  0  0  0  0  0  0  0  0  0  0
    2.4138   -2.6807    0.0000 C   0  0  0  0  0  0  0  0  0  0  0  0
    3.4175   -3.7955    0.0000 O   0  0  0  0  0  0  0  0  0  0  0  0
    3.2954   -1.4672    0.0000 C   0  0  0  0  0  0  0  0  0  0  0  0
    4.7726   -1.2067    0.0000 C   0  0  0  0  0  0  0  0  0  0  0  0
    4.0903   -2.7393    0.0000 O   0  0  0  0  0  0  0  0  0  0  0  0
  1  2  1  0
  3  2  1  6
  3  4  1  0
  4  5  1  0
  5  6  2  0
  5  7  1  0
  7  8  1  1
  7  9  1  0
  9 10  1  6
 11 10  1  1
 11 12  1  0
 12 13  1  0
 13 14  1  6
 13 15  1  0
 15 16  1  0
 13 17  1  0
 17 18  1  1
 17 19  1  0
 19 20  1  0
 17 21  1  0
 21 22  1  6
 21 23  1  0
  9 24  1  0
 24 25  1  1
 24 26  1  0
 26 27  1  6
 28 27  1  1
 28 29  1  0
 29 30  1  0
 30 31  1  1
 30 32  1  0
 32 33  1  0
 33 34  1  1
 34 35  1  0
 34 36  1  0
 33 37  1  0
 37 38  1  6
 26 39  1  0
 39 40  1  6
 39 41  1  0
 39 42  1  0
 42 43  1  0
 43 44  1  6
 43 45  1  0
 45 46  1  0
 46 47  1  0
 47 48  1  1
 47 49  1  0
 49 50  1  6
 49 51  1  0
 51 52  1  6
 51 53  1  0
 51  3  1  0
 23 11  1  0
 37 28  1  0
M  END
>  <ChEMBL_IDs>  (320) 
CHEMBL2114276

>  <target_organism>  (320) 
Plasmodium falciparum

>  <target_molecule_pref_name>  (320) 
nan

>  <# Known Targets>  (320) 
nan

>  <Known Targets>  (320) 
nan

>  <smiles>  (320) 
CC[C@H]1OC(=O)[C@H](C)[C@@H](O[C@H]2C[C@@](C)(OC)[C@](O)(CN)[C@H](C)O2)[C@H](C)[C@@H](O[C@@H]2O[C@H](C)C[C@H](N(C)C)[C@H]2O)[C@](C)(O)C[C@@H](C)CN[C@H](C)[C@@H](O)[C@]1(C)O

$$$$

     RDKit          2D

 53 55  0  0  0  0  0  0  0  0999 V2000
    5.8573   -1.2990    0.0000 C   0  0  0  0  0  0  0  0  0  0  0  0
    5.1073    0.0000    0.0000 C   0  0  0  0  0  0  0  0  0  0  0  0
    3.6073    0.0000    0.0000 C   0  0  0  0  0  0  0  0  0  0  0  0
    3.2954    1.4672    0.0000 O   0  0  0  0  0  0  0  0  0  0  0  0
    2.4138    2.6807    0.0000 C   0  0  0  0  0  0  0  0  0  0  0  0
    3.4175    3.7955    0.0000 O   0  0  0  0  0  0  0  0  0  0  0  0
    1.1147    3.4307    0.0000 C   0  0  0  0  0  0  0  0  0  0  0  0
    1.8302    4.5756    0.0000 C   0  0  0  0  0  0  0  0  0  0  0  0
   -0.3771    3.5875    0.0000 C   0  0  0  0  0  0  0  0  0  0  0  0
   -0.5339    5.0793    0.0000 O   0  0  0  0  0  0  0  0  0  0  0  0
    0.6797    5.9610    0.0000 C   0  0  0  0  0  0  0  0  0  0  0  0
    0.5229    7.4528    0.0000 C   0  0  0  0  0  0  0  0  0  0  0  0
    1.7364    8.3345    0.0000 C   0  0  0  0  0  0  0  0  0  0  0  0
    2.5752    9.5780    0.0000 C   0  0  0  0  0  0  0  0  0  0  0  0
    0.6574    9.3764    0.0000 O   0  0  0  0  0  0  0  0  0  0  0  0
    1.0203   10.8319    0.0000 C   0  0  0  0  0  0  0  0  0  0  0  0
    3.1067    7.7244    0.0000 C   0  0  0  0  0  0  0  0  0  0  0  0
    3.4696    9.1798    0.0000 O   0  0  0  0  0  0  0  0  0  0  0  0
    4.6031    7.6197    0.0000 C   0  0  0  0  0  0  0  0  0  0  0  0
    5.4419    8.8633    0.0000 N   0  0  0  0  0  0  0  0  0  0  0  0
    3.2635    6.2326    0.0000 C   0  0  0  0  0  0  0  0  0  0  0  0
    4.6338    5.6225    0.0000 C   0  0  0  0  0  0  0  0  0  0  0  0
    2.0500    5.3509    0.0000 O   0  0  0  0  0  0  0  0  0  0  0  0
   -1.8037    3.1240    0.0000 C   0  0  0  0  0  0  0  0  0  0  0  0
   -2.5537    4.4231    0.0000 C   0  0  0  0  0  0  0  0  0  0  0  0
   -2.9184    2.1203    0.0000 C   0  0  0  0  0  0  0  0  0  0  0  0
   -4.1319    3.0020    0.0000 O   0  0  0  0  0  0  0  0  0  0  0  0
   -5.5022    2.3919    0.0000 C   0  0  0  0  0  0  0  0  0  0  0  0
   -6.7157    3.2736    0.0000 O   0  0  0  0  0  0  0  0  0  0  0  0
   -8.0861    2.6635    0.0000 C   0  0  0  0  0  0  0  0  0  0  0  0
   -9.2996    3.5451    0.0000 C   0  0  0  0  0  0  0  0  0  0  0  0
   -8.2428    1.1717    0.0000 C   0  0  0  0  0  0  0  0  0  0  0  0
   -7.0293    0.2900    0.0000 C   0  0  0  0  0  0  0  0  0  0  0  0
   -7.1861   -1.2018    0.0000 N   0  0  0  0  0  0  0  0  0  0  0  0
   -8.5564   -1.8119    0.0000 C   0  0  0  0  0  0  0  0  0  0  0  0
   -5.9726   -2.0835    0.0000 C   0  0  0  0  0  0  0  0  0  0  0  0
   -5.6590    0.9001    0.0000 C   0  0  0  0  0  0  0  0  0  0  0  0
   -5.0760    0.3564    0.0000 O   0  0  0  0  0  0  0  0  0  0  0  0
   -3.5285    0.7500    0.0000 C   0  0  0  0  0  0  0  0  0  0  0  0
   -4.2257    0.3635    0.0000 C   0  0  0  0  0  0  0  0  0  0  0  0
   -4.5705    1.8290    0.0000 O   0  0  0  0  0  0  0  0  0  0  0  0
   -3.5285   -0.7500    0.0000 C   0  0  0  0  0  0  0  0  0  0  0  0
   -2.9184   -2.1203    0.0000 C   0  0  0  0  0  0  0  0  0  0  0  0
   -4.1319   -3.0020    0.0000 C   0  0  0  0  0  0  0  0  0  0  0  0
   -1.8037   -3.1240    0.0000 C   0  0  0  0  0  0  0  0  0  0  0  0
   -0.3771   -3.5875    0.0000 N   0  0  0  0  0  0  0  0  0  0  0  0
    1.1147   -3.4307    0.0000 C   0  0  0  0  0  0  0  0  0  0  0  0
    1.5782   -4.8573    0.0000 C   0  0  0  0  0  0  0  0  0  0  0  0
    2.4138   -2.6807    0.0000 C   0  0  0  0  0  0  0  0  0  0  0  0
    3.4175   -3.7955    0.0000 O   0  0  0  0  0  0  0  0  0  0  0  0
    3.2954   -1.4672    0.0000 C   0  0  0  0  0  0  0  0  0  0  0  0
    4.7726   -1.2067    0.0000 C   0  0  0  0  0  0  0  0  0  0  0  0
    4.0903   -2.7393    0.0000 O   0  0  0  0  0  0  0  0  0  0  0  0
  1  2  1  0
  3  2  1  6
  3  4  1  0
  4  5  1  0
  5  6  2  0
  5  7  1  0
  7  8  1  1
  7  9  1  0
  9 10  1  6
 11 10  1  1
 11 12  1  0
 12 13  1  0
 13 14  1  6
 13 15  1  0
 15 16  1  0
 13 17  1  0
 17 18  1  6
 17 19  1  0
 19 20  1  0
 17 21  1  0
 21 22  1  6
 21 23  1  0
  9 24  1  0
 24 25  1  1
 24 26  1  0
 26 27  1  6
 28 27  1  1
 28 29  1  0
 29 30  1  0
 30 31  1  1
 30 32  1  0
 32 33  1  0
 33 34  1  1
 34 35  1  0
 34 36  1  0
 33 37  1  0
 37 38  1  6
 26 39  1  0
 39 40  1  6
 39 41  1  0
 39 42  1  0
 42 43  1  0
 43 44  1  6
 43 45  1  0
 45 46  1  0
 46 47  1  0
 47 48  1  1
 47 49  1  0
 49 50  1  6
 49 51  1  0
 51 52  1  6
 51 53  1  0
 51  3  1  0
 23 11  1  0
 37 28  1  0
M  END
>  <ChEMBL_IDs>  (321) 
CHEMBL2115261

>  <target_organism>  (321) 
Plasmodium falciparum

>  <target_molecule_pref_name>  (321) 
nan

>  <# Known Targets>  (321) 
nan

>  <Known Targets>  (321) 
nan

>  <smiles>  (321) 
CC[C@H]1OC(=O)[C@H](C)[C@@H](O[C@H]2C[C@@](C)(OC)[C@@](O)(CN)[C@H](C)O2)[C@H](C)[C@@H](O[C@@H]2O[C@H](C)C[C@H](N(C)C)[C@H]2O)[C@](C)(O)C[C@@H](C)CN[C@H](C)[C@@H](O)[C@]1(C)O

$$$$

     RDKit          2D

 53 55  0  0  0  0  0  0  0  0999 V2000
    6.0944   -1.2990    0.0000 C   0  0  0  0  0  0  0  0  0  0  0  0
    5.3444    0.0000    0.0000 C   0  0  0  0  0  0  0  0  0  0  0  0
    3.8444    0.0000    0.0000 C   0  0  0  0  0  0  0  0  0  0  0  0
    3.5517   -1.4712    0.0000 O   0  0  0  0  0  0  0  0  0  0  0  0
    2.7184   -2.7184    0.0000 C   0  0  0  0  0  0  0  0  0  0  0  0
    3.7790   -3.7790    0.0000 O   0  0  0  0  0  0  0  0  0  0  0  0
    1.4712   -3.5517    0.0000 C   0  0  0  0  0  0  0  0  0  0  0  0
   -0.0000   -3.8444    0.0000 C   0  0  0  0  0  0  0  0  0  0  0  0
   -1.4712   -3.5517    0.0000 C   0  0  0  0  0  0  0  0  0  0  0  0
   -1.6507   -4.7534    0.0000 C   0  0  0  0  0  0  0  0  0  0  0  0
   -2.7184   -2.7184    0.0000 C   0  0  0  0  0  0  0  0  0  0  0  0
   -3.7790   -3.7790    0.0000 O   0  0  0  0  0  0  0  0  0  0  0  0
   -3.3908   -5.2279    0.0000 C   0  0  0  0  0  0  0  0  0  0  0  0
   -1.9419   -5.6162    0.0000 O   0  0  0  0  0  0  0  0  0  0  0  0
   -1.5537   -7.0650    0.0000 C   0  0  0  0  0  0  0  0  0  0  0  0
   -0.1048   -7.4533    0.0000 C   0  0  0  0  0  0  0  0  0  0  0  0
   -2.6144   -8.1257    0.0000 C   0  0  0  0  0  0  0  0  0  0  0  0
   -2.2261   -9.5746    0.0000 O   0  0  0  0  0  0  0  0  0  0  0  0
   -4.0632   -7.7375    0.0000 C   0  0  0  0  0  0  0  0  0  0  0  0
   -5.1239   -8.7981    0.0000 N   0  0  0  0  0  0  0  0  0  0  0  0
   -6.5728   -8.4099    0.0000 C   0  0  0  0  0  0  0  0  0  0  0  0
   -4.7357  -10.2470    0.0000 C   0  0  0  0  0  0  0  0  0  0  0  0
   -4.4515   -6.2886    0.0000 C   0  0  0  0  0  0  0  0  0  0  0  0
   -5.9004   -5.9004    0.0000 O   0  0  0  0  0  0  0  0  0  0  0  0
   -3.5517   -1.4712    0.0000 C   0  0  0  0  0  0  0  0  0  0  0  0
   -4.9376   -2.0452    0.0000 C   0  0  0  0  0  0  0  0  0  0  0  0
   -6.1276   -1.1321    0.0000 C   0  0  0  0  0  0  0  0  0  0  0  0
   -7.5134   -1.7061    0.0000 O   0  0  0  0  0  0  0  0  0  0  0  0
   -3.8444    0.0000    0.0000 C   0  0  0  0  0  0  0  0  0  0  0  0
   -3.5517    1.4712    0.0000 C   0  0  0  0  0  0  0  0  0  0  0  0
   -4.9376    2.0452    0.0000 C   0  0  0  0  0  0  0  0  0  0  0  0
   -2.7184    2.7184    0.0000 C   0  0  0  0  0  0  0  0  0  0  0  0
   -3.7790    3.7790    0.0000 O   0  0  0  0  0  0  0  0  0  0  0  0
   -1.4712    3.5517    0.0000 C   0  0  0  0  0  0  0  0  0  0  0  0
    0.0000    3.8444    0.0000 C   0  0  0  0  0  0  0  0  0  0  0  0
    1.4712    3.5517    0.0000 C   0  0  0  0  0  0  0  0  0  0  0  0
    2.0452    4.9376    0.0000 C   0  0  0  0  0  0  0  0  0  0  0  0
    2.7184    2.7184    0.0000 C   0  0  0  0  0  0  0  0  0  0  0  0
    3.5517    1.4712    0.0000 C   0  0  0  0  0  0  0  0  0  0  0  0
    4.9376    2.0452    0.0000 C   0  0  0  0  0  0  0  0  0  0  0  0
    6.1276    1.1321    0.0000 O   0  0  0  0  0  0  0  0  0  0  0  0
    7.5134    1.7061    0.0000 C   0  0  0  0  0  0  0  0  0  0  0  0
    8.7034    0.7929    0.0000 O   0  0  0  0  0  0  0  0  0  0  0  0
   10.0893    1.3670    0.0000 C   0  0  0  0  0  0  0  0  0  0  0  0
   11.2793    0.4538    0.0000 C   0  0  0  0  0  0  0  0  0  0  0  0
   10.2850    2.8541    0.0000 C   0  0  0  0  0  0  0  0  0  0  0  0
   11.6709    3.4282    0.0000 O   0  0  0  0  0  0  0  0  0  0  0  0
    9.0950    3.7673    0.0000 C   0  0  0  0  0  0  0  0  0  0  0  0
    9.2908    5.2544    0.0000 O   0  0  0  0  0  0  0  0  0  0  0  0
    8.1008    6.1676    0.0000 C   0  0  0  0  0  0  0  0  0  0  0  0
    7.7092    3.1933    0.0000 C   0  0  0  0  0  0  0  0  0  0  0  0
    6.5192    4.1064    0.0000 O   0  0  0  0  0  0  0  0  0  0  0  0
    6.7150    5.5936    0.0000 C   0  0  0  0  0  0  0  0  0  0  0  0
  1  2  1  0
  3  2  1  1
  3  4  1  0
  4  5  1  0
  5  6  2  0
  5  7  1  0
  7  8  2  0
  8  9  1  0
  9 10  1  6
  9 11  1  0
 11 12  1  1
 12 13  1  0
 13 14  1  0
 14 15  1  0
 15 16  1  0
 15 17  1  0
 17 18  1  0
 17 19  1  0
 19 20  1  0
 20 21  1  0
 20 22  1  0
 19 23  1  0
 23 24  1  0
 11 25  1  0
 25 26  1  1
 26 27  1  0
 27 28  2  0
 25 29  1  0
 29 30  1  0
 30 31  1  1
 30 32  1  0
 32 33  2  0
 32 34  1  0
 34 35  2  0
 35 36  1  0
 36 37  1  0
 36 38  2  0
 38 39  1  0
 39 40  1  6
 40 41  1  0
 41 42  1  0
 42 43  1  0
 43 44  1  0
 44 45  1  0
 44 46  1  0
 46 47  1  0
 46 48  1  0
 48 49  1  0
 49 50  1  0
 48 51  1  0
 51 52  1  0
 52 53  1  0
 39  3  1  0
 51 42  1  0
 23 13  1  0
M  END
>  <ChEMBL_IDs>  (322) 
CHEMBL337066

>  <target_organism>  (322) 
Hepatitis C virus,None

>  <target_molecule_pref_name>  (322) 
nan

>  <# Known Targets>  (322) 
nan

>  <Known Targets>  (322) 
nan

>  <smiles>  (322) 
CC[C@H]1OC(=O)/C=C\[C@H](C)[C@@H](OC2OC(C)C(O)C(N(C)C)C2O)[C@@H](CC=O)C[C@@H](C)C(=O)/C=C/C(C)=C/[C@@H]1COC1OC(C)C(O)C(OC)C1OC

$$$$

     RDKit          2D

 55 57  0  0  0  0  0  0  0  0999 V2000
    6.0944   -1.2990    0.0000 C   0  0  0  0  0  0  0  0  0  0  0  0
    5.3444    0.0000    0.0000 O   0  0  0  0  0  0  0  0  0  0  0  0
    3.8444    0.0000    0.0000 C   0  0  0  0  0  0  0  0  0  0  0  0
    3.5517   -1.4712    0.0000 C   0  0  0  0  0  0  0  0  0  0  0  0
    4.9376   -2.0452    0.0000 O   0  0  0  0  0  0  0  0  0  0  0  0
    5.1333   -3.5324    0.0000 C   0  0  0  0  0  0  0  0  0  0  0  0
    6.5192   -4.1064    0.0000 C   0  0  0  0  0  0  0  0  0  0  0  0
    3.9433   -4.4455    0.0000 O   0  0  0  0  0  0  0  0  0  0  0  0
    2.7184   -2.7184    0.0000 C   0  0  0  0  0  0  0  0  0  0  0  0
    1.4712   -3.5517    0.0000 C   0  0  0  0  0  0  0  0  0  0  0  0
    2.0452   -4.9376    0.0000 O   0  0  0  0  0  0  0  0  0  0  0  0
   -0.0000   -3.8444    0.0000 O   0  0  0  0  0  0  0  0  0  0  0  0
   -1.4712   -3.5517    0.0000 C   0  0  0  0  0  0  0  0  0  0  0  0
   -2.0452   -4.9376    0.0000 C   0  0  0  0  0  0  0  0  0  0  0  0
   -2.7184   -2.7184    0.0000 C   0  0  0  0  0  0  0  0  0  0  0  0
   -3.5517   -1.4712    0.0000 C   0  0  0  0  0  0  0  0  0  0  0  0
   -3.8444    0.0000    0.0000 C   0  0  0  0  0  0  0  0  0  0  0  0
   -3.5517    1.4712    0.0000 C   0  0  0  0  0  0  0  0  0  0  0  0
   -2.7184    2.7184    0.0000 C   0  0  0  0  0  0  0  0  0  0  0  0
   -1.4712    3.5517    0.0000 C   0  0  0  0  0  0  0  0  0  0  0  0
   -2.0452    4.9376    0.0000 O   0  0  0  0  0  0  0  0  0  0  0  0
    0.0000    3.8444    0.0000 C   0  0  0  0  0  0  0  0  0  0  0  0
    0.0000    5.3444    0.0000 C   0  0  0  0  0  0  0  0  0  0  0  0
    1.4712    3.5517    0.0000 C   0  0  0  0  0  0  0  0  0  0  0  0
    2.7184    2.7184    0.0000 C   0  0  0  0  0  0  0  0  0  0  0  0
    3.7790    3.7790    0.0000 C   0  0  0  0  0  0  0  0  0  0  0  0
    5.2279    3.3908    0.0000 C   0  0  0  0  0  0  0  0  0  0  0  0
    6.2886    4.4515    0.0000 O   0  0  0  0  0  0  0  0  0  0  0  0
    3.5517    1.4712    0.0000 C   0  0  0  0  0  0  0  0  0  0  0  0
    4.9376    2.0452    0.0000 O   0  0  0  0  0  0  0  0  0  0  0  0
    6.1276    1.1321    0.0000 C   0  0  0  0  0  0  0  0  0  0  0  0
    5.9318   -0.3551    0.0000 O   0  0  0  0  0  0  0  0  0  0  0  0
    7.1218   -1.2682    0.0000 C   0  0  0  0  0  0  0  0  0  0  0  0
    6.9260   -2.7554    0.0000 C   0  0  0  0  0  0  0  0  0  0  0  0
    8.5076   -0.6942    0.0000 C   0  0  0  0  0  0  0  0  0  0  0  0
    9.6977   -1.6074    0.0000 O   0  0  0  0  0  0  0  0  0  0  0  0
   11.0835   -1.0333    0.0000 C   0  0  0  0  0  0  0  0  0  0  0  0
   12.2735   -1.9465    0.0000 C   0  0  0  0  0  0  0  0  0  0  0  0
   13.6593   -1.3725    0.0000 C   0  0  0  0  0  0  0  0  0  0  0  0
   15.1579   -1.3070    0.0000 C   0  0  0  0  0  0  0  0  0  0  0  0
   13.9840   -2.8369    0.0000 O   0  0  0  0  0  0  0  0  0  0  0  0
   13.8551    0.1147    0.0000 C   0  0  0  0  0  0  0  0  0  0  0  0
   15.2410    0.6887    0.0000 O   0  0  0  0  0  0  0  0  0  0  0  0
   15.4367    2.1759    0.0000 C   0  0  0  0  0  0  0  0  0  0  0  0
   16.8226    2.7499    0.0000 C   0  0  0  0  0  0  0  0  0  0  0  0
   14.2467    3.0890    0.0000 O   0  0  0  0  0  0  0  0  0  0  0  0
   12.6651    1.0279    0.0000 C   0  0  0  0  0  0  0  0  0  0  0  0
   12.8609    2.5150    0.0000 C   0  0  0  0  0  0  0  0  0  0  0  0
   11.2793    0.4538    0.0000 O   0  0  0  0  0  0  0  0  0  0  0  0
    8.7034    0.7929    0.0000 C   0  0  0  0  0  0  0  0  0  0  0  0
   10.0893    1.3670    0.0000 N   0  0  0  0  0  0  0  0  0  0  0  0
   10.2850    2.8541    0.0000 C   0  0  0  0  0  0  0  0  0  0  0  0
   11.4649    0.7689    0.0000 C   0  0  0  0  0  0  0  0  0  0  0  0
    7.5134    1.7061    0.0000 C   0  0  0  0  0  0  0  0  0  0  0  0
    7.7092    3.1933    0.0000 O   0  0  0  0  0  0  0  0  0  0  0  0
  1  2  1  0
  2  3  1  0
  3  4  1  0
  4  5  1  0
  5  6  1  0
  6  7  1  0
  6  8  2  0
  4  9  1  0
  9 10  1  0
 10 11  2  0
 10 12  1  0
 12 13  1  0
 13 14  1  0
 13 15  1  0
 15 16  1  0
 16 17  2  0
 17 18  1  0
 18 19  2  0
 19 20  1  0
 20 21  1  0
 20 22  1  0
 22 23  1  0
 22 24  1  0
 24 25  1  0
 25 26  1  0
 26 27  1  0
 27 28  2  0
 25 29  1  0
 29 30  1  0
 30 31  1  0
 31 32  1  0
 32 33  1  0
 33 34  1  0
 33 35  1  0
 35 36  1  0
 36 37  1  0
 37 38  1  0
 38 39  1  0
 39 40  1  0
 39 41  1  0
 39 42  1  0
 42 43  1  0
 43 44  1  0
 44 45  1  0
 44 46  2  0
 42 47  1  0
 47 48  1  0
 47 49  1  0
 35 50  1  0
 50 51  1  0
 51 52  1  0
 51 53  1  0
 50 54  1  0
 54 55  1  0
 29  3  1  0
 54 31  1  0
 49 37  1  0
M  END
>  <ChEMBL_IDs>  (323) 
nan

>  <target_organism>  (323) 
nan

>  <target_molecule_pref_name>  (323) 
nan

>  <# Known Targets>  (323) 
nan

>  <Known Targets>  (323) 
nan

>  <smiles>  (323) 
COC1C(OC(C)=O)CC(=O)OC(C)C/C=C\C=C/C(O)C(C)CC(CC=O)C1OC1OC(C)C(OC2CC(C)(O)C(OC(C)=O)C(C)O2)C(N(C)C)C1O

$$$$

     RDKit          2D

 55 57  0  0  0  0  0  0  0  0999 V2000
    6.0944   -1.2990    0.0000 C   0  0  0  0  0  0  0  0  0  0  0  0
    5.3444    0.0000    0.0000 O   0  0  0  0  0  0  0  0  0  0  0  0
    3.8444    0.0000    0.0000 C   0  0  0  0  0  0  0  0  0  0  0  0
    3.5517   -1.4712    0.0000 C   0  0  0  0  0  0  0  0  0  0  0  0
    4.9376   -2.0452    0.0000 O   0  0  0  0  0  0  0  0  0  0  0  0
    5.1333   -3.5324    0.0000 C   0  0  0  0  0  0  0  0  0  0  0  0
    6.5192   -4.1064    0.0000 C   0  0  0  0  0  0  0  0  0  0  0  0
    3.9433   -4.4455    0.0000 O   0  0  0  0  0  0  0  0  0  0  0  0
    2.7184   -2.7184    0.0000 C   0  0  0  0  0  0  0  0  0  0  0  0
    1.4712   -3.5517    0.0000 C   0  0  0  0  0  0  0  0  0  0  0  0
    2.0452   -4.9376    0.0000 O   0  0  0  0  0  0  0  0  0  0  0  0
   -0.0000   -3.8444    0.0000 O   0  0  0  0  0  0  0  0  0  0  0  0
   -1.4712   -3.5517    0.0000 C   0  0  0  0  0  0  0  0  0  0  0  0
   -2.0452   -4.9376    0.0000 C   0  0  0  0  0  0  0  0  0  0  0  0
   -2.7184   -2.7184    0.0000 C   0  0  0  0  0  0  0  0  0  0  0  0
   -3.5517   -1.4712    0.0000 C   0  0  0  0  0  0  0  0  0  0  0  0
   -3.8444    0.0000    0.0000 C   0  0  0  0  0  0  0  0  0  0  0  0
   -3.5517    1.4712    0.0000 C   0  0  0  0  0  0  0  0  0  0  0  0
   -2.7184    2.7184    0.0000 C   0  0  0  0  0  0  0  0  0  0  0  0
   -1.4712    3.5517    0.0000 C   0  0  0  0  0  0  0  0  0  0  0  0
   -2.0452    4.9376    0.0000 O   0  0  0  0  0  0  0  0  0  0  0  0
    0.0000    3.8444    0.0000 C   0  0  0  0  0  0  0  0  0  0  0  0
    0.0000    5.3444    0.0000 C   0  0  0  0  0  0  0  0  0  0  0  0
    1.4712    3.5517    0.0000 C   0  0  0  0  0  0  0  0  0  0  0  0
    2.7184    2.7184    0.0000 C   0  0  0  0  0  0  0  0  0  0  0  0
    3.7790    3.7790    0.0000 C   0  0  0  0  0  0  0  0  0  0  0  0
    5.2279    3.3908    0.0000 C   0  0  0  0  0  0  0  0  0  0  0  0
    6.2886    4.4515    0.0000 O   0  0  0  0  0  0  0  0  0  0  0  0
    3.5517    1.4712    0.0000 C   0  0  0  0  0  0  0  0  0  0  0  0
    4.9376    2.0452    0.0000 O   0  0  0  0  0  0  0  0  0  0  0  0
    6.1276    1.1321    0.0000 C   0  0  0  0  0  0  0  0  0  0  0  0
    5.9318   -0.3551    0.0000 O   0  0  0  0  0  0  0  0  0  0  0  0
    7.1218   -1.2682    0.0000 C   0  0  0  0  0  0  0  0  0  0  0  0
    6.9260   -2.7554    0.0000 C   0  0  0  0  0  0  0  0  0  0  0  0
    8.5076   -0.6942    0.0000 C   0  0  0  0  0  0  0  0  0  0  0  0
    9.6977   -1.6074    0.0000 O   0  0  0  0  0  0  0  0  0  0  0  0
   11.0835   -1.0333    0.0000 C   0  0  0  0  0  0  0  0  0  0  0  0
   12.2735   -1.9465    0.0000 C   0  0  0  0  0  0  0  0  0  0  0  0
   13.6593   -1.3725    0.0000 C   0  0  0  0  0  0  0  0  0  0  0  0
   15.1579   -1.3070    0.0000 C   0  0  0  0  0  0  0  0  0  0  0  0
   13.9840   -2.8369    0.0000 O   0  0  0  0  0  0  0  0  0  0  0  0
   13.8551    0.1147    0.0000 C   0  0  0  0  0  0  0  0  0  0  0  0
   15.2410    0.6887    0.0000 O   0  0  0  0  0  0  0  0  0  0  0  0
   15.4367    2.1759    0.0000 C   0  0  0  0  0  0  0  0  0  0  0  0
   16.8226    2.7499    0.0000 C   0  0  0  0  0  0  0  0  0  0  0  0
   14.2467    3.0890    0.0000 O   0  0  0  0  0  0  0  0  0  0  0  0
   12.6651    1.0279    0.0000 C   0  0  0  0  0  0  0  0  0  0  0  0
   12.8609    2.5150    0.0000 C   0  0  0  0  0  0  0  0  0  0  0  0
   11.2793    0.4538    0.0000 O   0  0  0  0  0  0  0  0  0  0  0  0
    8.7034    0.7929    0.0000 C   0  0  0  0  0  0  0  0  0  0  0  0
   10.0893    1.3670    0.0000 N   0  0  0  0  0  0  0  0  0  0  0  0
   10.2850    2.8541    0.0000 C   0  0  0  0  0  0  0  0  0  0  0  0
   11.4649    0.7689    0.0000 C   0  0  0  0  0  0  0  0  0  0  0  0
    7.5134    1.7061    0.0000 C   0  0  0  0  0  0  0  0  0  0  0  0
    7.7092    3.1933    0.0000 O   0  0  0  0  0  0  0  0  0  0  0  0
  1  2  1  0
  2  3  1  0
  3  4  1  0
  4  5  1  0
  5  6  1  0
  6  7  1  0
  6  8  2  0
  4  9  1  0
  9 10  1  0
 10 11  2  0
 10 12  1  0
 12 13  1  0
 13 14  1  0
 13 15  1  0
 15 16  1  0
 16 17  2  0
 17 18  1  0
 18 19  2  0
 19 20  1  0
 20 21  1  0
 20 22  1  0
 22 23  1  0
 22 24  1  0
 24 25  1  0
 25 26  1  0
 26 27  1  0
 27 28  2  0
 25 29  1  0
 29 30  1  0
 30 31  1  0
 31 32  1  0
 32 33  1  0
 33 34  1  0
 33 35  1  0
 35 36  1  0
 36 37  1  0
 37 38  1  0
 38 39  1  0
 39 40  1  0
 39 41  1  0
 39 42  1  0
 42 43  1  0
 43 44  1  0
 44 45  1  0
 44 46  2  0
 42 47  1  0
 47 48  1  0
 47 49  1  0
 35 50  1  0
 50 51  1  0
 51 52  1  0
 51 53  1  0
 50 54  1  0
 54 55  1  0
 29  3  1  0
 54 31  1  0
 49 37  1  0
M  END
>  <ChEMBL_IDs>  (324) 
nan

>  <target_organism>  (324) 
nan

>  <target_molecule_pref_name>  (324) 
nan

>  <# Known Targets>  (324) 
nan

>  <Known Targets>  (324) 
nan

>  <smiles>  (324) 
COC1C(OC(C)=O)CC(=O)OC(C)C/C=C\C=C/C(O)C(C)CC(CC=O)C1OC1OC(C)C(OC2CC(C)(O)C(OC(C)=O)C(C)O2)C(N(C)C)C1O

$$$$

     RDKit          2D

 55 57  0  0  0  0  0  0  0  0999 V2000
    6.0944   -1.2990    0.0000 C   0  0  0  0  0  0  0  0  0  0  0  0
    5.3444    0.0000    0.0000 O   0  0  0  0  0  0  0  0  0  0  0  0
    3.8444    0.0000    0.0000 C   0  0  0  0  0  0  0  0  0  0  0  0
    3.5517   -1.4712    0.0000 C   0  0  0  0  0  0  0  0  0  0  0  0
    4.9376   -2.0452    0.0000 O   0  0  0  0  0  0  0  0  0  0  0  0
    5.1333   -3.5324    0.0000 C   0  0  0  0  0  0  0  0  0  0  0  0
    6.5192   -4.1064    0.0000 C   0  0  0  0  0  0  0  0  0  0  0  0
    3.9433   -4.4455    0.0000 O   0  0  0  0  0  0  0  0  0  0  0  0
    2.7184   -2.7184    0.0000 C   0  0  0  0  0  0  0  0  0  0  0  0
    1.4712   -3.5517    0.0000 C   0  0  0  0  0  0  0  0  0  0  0  0
    2.0452   -4.9376    0.0000 O   0  0  0  0  0  0  0  0  0  0  0  0
   -0.0000   -3.8444    0.0000 O   0  0  0  0  0  0  0  0  0  0  0  0
   -1.4712   -3.5517    0.0000 C   0  0  0  0  0  0  0  0  0  0  0  0
   -2.0452   -4.9376    0.0000 C   0  0  0  0  0  0  0  0  0  0  0  0
   -2.7184   -2.7184    0.0000 C   0  0  0  0  0  0  0  0  0  0  0  0
   -3.5517   -1.4712    0.0000 C   0  0  0  0  0  0  0  0  0  0  0  0
   -3.8444    0.0000    0.0000 C   0  0  0  0  0  0  0  0  0  0  0  0
   -3.5517    1.4712    0.0000 C   0  0  0  0  0  0  0  0  0  0  0  0
   -2.7184    2.7184    0.0000 C   0  0  0  0  0  0  0  0  0  0  0  0
   -1.4712    3.5517    0.0000 C   0  0  0  0  0  0  0  0  0  0  0  0
   -2.0452    4.9376    0.0000 O   0  0  0  0  0  0  0  0  0  0  0  0
    0.0000    3.8444    0.0000 C   0  0  0  0  0  0  0  0  0  0  0  0
    0.0000    5.3444    0.0000 C   0  0  0  0  0  0  0  0  0  0  0  0
    1.4712    3.5517    0.0000 C   0  0  0  0  0  0  0  0  0  0  0  0
    2.7184    2.7184    0.0000 C   0  0  0  0  0  0  0  0  0  0  0  0
    3.7790    3.7790    0.0000 C   0  0  0  0  0  0  0  0  0  0  0  0
    5.2279    3.3908    0.0000 C   0  0  0  0  0  0  0  0  0  0  0  0
    6.2886    4.4515    0.0000 O   0  0  0  0  0  0  0  0  0  0  0  0
    3.5517    1.4712    0.0000 C   0  0  0  0  0  0  0  0  0  0  0  0
    4.9376    2.0452    0.0000 O   0  0  0  0  0  0  0  0  0  0  0  0
    6.1276    1.1321    0.0000 C   0  0  0  0  0  0  0  0  0  0  0  0
    5.9318   -0.3551    0.0000 O   0  0  0  0  0  0  0  0  0  0  0  0
    7.1218   -1.2682    0.0000 C   0  0  0  0  0  0  0  0  0  0  0  0
    6.9260   -2.7554    0.0000 C   0  0  0  0  0  0  0  0  0  0  0  0
    8.5076   -0.6942    0.0000 C   0  0  0  0  0  0  0  0  0  0  0  0
    9.6977   -1.6074    0.0000 O   0  0  0  0  0  0  0  0  0  0  0  0
   11.0835   -1.0333    0.0000 C   0  0  0  0  0  0  0  0  0  0  0  0
   12.2735   -1.9465    0.0000 C   0  0  0  0  0  0  0  0  0  0  0  0
   13.6593   -1.3725    0.0000 C   0  0  0  0  0  0  0  0  0  0  0  0
   15.1579   -1.3070    0.0000 C   0  0  0  0  0  0  0  0  0  0  0  0
   13.9840   -2.8369    0.0000 O   0  0  0  0  0  0  0  0  0  0  0  0
   13.8551    0.1147    0.0000 C   0  0  0  0  0  0  0  0  0  0  0  0
   15.2410    0.6887    0.0000 O   0  0  0  0  0  0  0  0  0  0  0  0
   15.4367    2.1759    0.0000 C   0  0  0  0  0  0  0  0  0  0  0  0
   16.8226    2.7499    0.0000 C   0  0  0  0  0  0  0  0  0  0  0  0
   14.2467    3.0890    0.0000 O   0  0  0  0  0  0  0  0  0  0  0  0
   12.6651    1.0279    0.0000 C   0  0  0  0  0  0  0  0  0  0  0  0
   12.8609    2.5150    0.0000 C   0  0  0  0  0  0  0  0  0  0  0  0
   11.2793    0.4538    0.0000 O   0  0  0  0  0  0  0  0  0  0  0  0
    8.7034    0.7929    0.0000 C   0  0  0  0  0  0  0  0  0  0  0  0
   10.0893    1.3670    0.0000 N   0  0  0  0  0  0  0  0  0  0  0  0
   10.2850    2.8541    0.0000 C   0  0  0  0  0  0  0  0  0  0  0  0
   11.4649    0.7689    0.0000 C   0  0  0  0  0  0  0  0  0  0  0  0
    7.5134    1.7061    0.0000 C   0  0  0  0  0  0  0  0  0  0  0  0
    7.7092    3.1933    0.0000 O   0  0  0  0  0  0  0  0  0  0  0  0
  1  2  1  0
  2  3  1  0
  3  4  1  0
  4  5  1  0
  5  6  1  0
  6  7  1  0
  6  8  2  0
  4  9  1  0
  9 10  1  0
 10 11  2  0
 10 12  1  0
 12 13  1  0
 13 14  1  0
 13 15  1  0
 15 16  1  0
 16 17  2  0
 17 18  1  0
 18 19  2  0
 19 20  1  0
 20 21  1  0
 20 22  1  0
 22 23  1  0
 22 24  1  0
 24 25  1  0
 25 26  1  0
 26 27  1  0
 27 28  2  0
 25 29  1  0
 29 30  1  0
 30 31  1  0
 31 32  1  0
 32 33  1  0
 33 34  1  0
 33 35  1  0
 35 36  1  0
 36 37  1  0
 37 38  1  0
 38 39  1  0
 39 40  1  0
 39 41  1  0
 39 42  1  0
 42 43  1  0
 43 44  1  0
 44 45  1  0
 44 46  2  0
 42 47  1  0
 47 48  1  0
 47 49  1  0
 35 50  1  0
 50 51  1  0
 51 52  1  0
 51 53  1  0
 50 54  1  0
 54 55  1  0
 29  3  1  0
 54 31  1  0
 49 37  1  0
M  END
>  <ChEMBL_IDs>  (325) 
nan

>  <target_organism>  (325) 
nan

>  <target_molecule_pref_name>  (325) 
nan

>  <# Known Targets>  (325) 
nan

>  <Known Targets>  (325) 
nan

>  <smiles>  (325) 
COC1C(OC(C)=O)CC(=O)OC(C)C/C=C\C=C/C(O)C(C)CC(CC=O)C1OC1OC(C)C(OC2CC(C)(O)C(OC(C)=O)C(C)O2)C(N(C)C)C1O

$$$$

     RDKit          2D

 55 57  0  0  0  0  0  0  0  0999 V2000
    6.0944   -1.2990    0.0000 C   0  0  0  0  0  0  0  0  0  0  0  0
    5.3444    0.0000    0.0000 C   0  0  0  0  0  0  0  0  0  0  0  0
    3.8444    0.0000    0.0000 C   0  0  0  0  0  0  0  0  0  0  0  0
    3.5517   -1.4712    0.0000 O   0  0  0  0  0  0  0  0  0  0  0  0
    2.7184   -2.7184    0.0000 C   0  0  0  0  0  0  0  0  0  0  0  0
    3.7790   -3.7790    0.0000 O   0  0  0  0  0  0  0  0  0  0  0  0
    1.4712   -3.5517    0.0000 C   0  0  0  0  0  0  0  0  0  0  0  0
   -0.0000   -3.8444    0.0000 C   0  0  0  0  0  0  0  0  0  0  0  0
   -0.0000   -5.3444    0.0000 O   0  0  0  0  0  0  0  0  0  0  0  0
   -1.4712   -3.5517    0.0000 C   0  0  0  0  0  0  0  0  0  0  0  0
   -1.6507   -4.7534    0.0000 C   0  0  0  0  0  0  0  0  0  0  0  0
   -2.7184   -2.7184    0.0000 C   0  0  0  0  0  0  0  0  0  0  0  0
   -3.7790   -3.7790    0.0000 O   0  0  0  0  0  0  0  0  0  0  0  0
   -3.3908   -5.2279    0.0000 C   0  0  0  0  0  0  0  0  0  0  0  0
   -1.9419   -5.6162    0.0000 O   0  0  0  0  0  0  0  0  0  0  0  0
   -1.5537   -7.0650    0.0000 C   0  0  0  0  0  0  0  0  0  0  0  0
   -0.1048   -7.4533    0.0000 C   0  0  0  0  0  0  0  0  0  0  0  0
   -2.6144   -8.1257    0.0000 C   0  0  0  0  0  0  0  0  0  0  0  0
   -2.2261   -9.5746    0.0000 O   0  0  0  0  0  0  0  0  0  0  0  0
   -4.0632   -7.7375    0.0000 C   0  0  0  0  0  0  0  0  0  0  0  0
   -5.1239   -8.7981    0.0000 O   0  0  0  0  0  0  0  0  0  0  0  0
   -4.4515   -6.2886    0.0000 C   0  0  0  0  0  0  0  0  0  0  0  0
   -5.9004   -5.9004    0.0000 O   0  0  0  0  0  0  0  0  0  0  0  0
   -3.5517   -1.4712    0.0000 C   0  0  0  0  0  0  0  0  0  0  0  0
   -4.9376   -2.0452    0.0000 C   0  0  0  0  0  0  0  0  0  0  0  0
   -6.1276   -1.1321    0.0000 C   0  0  0  0  0  0  0  0  0  0  0  0
   -7.5134   -1.7061    0.0000 O   0  0  0  0  0  0  0  0  0  0  0  0
   -8.7034   -0.7929    0.0000 C   0  0  0  0  0  0  0  0  0  0  0  0
   -5.9318    0.3551    0.0000 O   0  0  0  0  0  0  0  0  0  0  0  0
   -7.1218    1.2682    0.0000 C   0  0  0  0  0  0  0  0  0  0  0  0
   -3.8444    0.0000    0.0000 C   0  0  0  0  0  0  0  0  0  0  0  0
   -3.5517    1.4712    0.0000 C   0  0  0  0  0  0  0  0  0  0  0  0
   -4.9376    2.0452    0.0000 C   0  0  0  0  0  0  0  0  0  0  0  0
   -2.7184    2.7184    0.0000 C   0  0  0  0  0  0  0  0  0  0  0  0
   -3.7790    3.7790    0.0000 O   0  0  0  0  0  0  0  0  0  0  0  0
   -1.4712    3.5517    0.0000 C   0  0  0  0  0  0  0  0  0  0  0  0
    0.0000    3.8444    0.0000 C   0  0  0  0  0  0  0  0  0  0  0  0
    1.4712    3.5517    0.0000 C   0  0  0  0  0  0  0  0  0  0  0  0
    2.0452    4.9376    0.0000 C   0  0  0  0  0  0  0  0  0  0  0  0
    2.7184    2.7184    0.0000 C   0  0  0  0  0  0  0  0  0  0  0  0
    3.5517    1.4712    0.0000 C   0  0  0  0  0  0  0  0  0  0  0  0
    4.9376    2.0452    0.0000 C   0  0  0  0  0  0  0  0  0  0  0  0
    6.1276    1.1321    0.0000 O   0  0  0  0  0  0  0  0  0  0  0  0
    7.5134    1.7061    0.0000 C   0  0  0  0  0  0  0  0  0  0  0  0
    8.7034    0.7929    0.0000 O   0  0  0  0  0  0  0  0  0  0  0  0
   10.0893    1.3670    0.0000 C   0  0  0  0  0  0  0  0  0  0  0  0
   11.2793    0.4538    0.0000 C   0  0  0  0  0  0  0  0  0  0  0  0
   10.2850    2.8541    0.0000 C   0  0  0  0  0  0  0  0  0  0  0  0
   11.6709    3.4282    0.0000 O   0  0  0  0  0  0  0  0  0  0  0  0
    9.0950    3.7673    0.0000 C   0  0  0  0  0  0  0  0  0  0  0  0
    9.2908    5.2544    0.0000 O   0  0  0  0  0  0  0  0  0  0  0  0
    8.1008    6.1676    0.0000 C   0  0  0  0  0  0  0  0  0  0  0  0
    7.7092    3.1933    0.0000 C   0  0  0  0  0  0  0  0  0  0  0  0
    6.5192    4.1064    0.0000 O   0  0  0  0  0  0  0  0  0  0  0  0
    6.7150    5.5936    0.0000 C   0  0  0  0  0  0  0  0  0  0  0  0
  1  2  1  0
  3  2  1  1
  3  4  1  0
  4  5  1  0
  5  6  2  0
  5  7  1  0
  7  8  1  0
  8  9  1  1
  8 10  1  0
 10 11  1  6
 10 12  1  0
 12 13  1  1
 13 14  1  0
 14 15  1  0
 15 16  1  0
 16 17  1  0
 16 18  1  0
 18 19  1  0
 18 20  1  0
 20 21  2  0
 20 22  1  0
 22 23  1  0
 12 24  1  0
 24 25  1  1
 25 26  1  0
 26 27  1  0
 27 28  1  0
 26 29  1  0
 29 30  1  0
 24 31  1  0
 31 32  1  0
 32 33  1  1
 32 34  1  0
 34 35  2  0
 34 36  1  0
 36 37  2  0
 37 38  1  0
 38 39  1  0
 38 40  2  0
 40 41  1  0
 41 42  1  6
 42 43  1  0
 43 44  1  0
 44 45  1  0
 45 46  1  0
 46 47  1  0
 46 48  1  0
 48 49  1  0
 48 50  1  0
 50 51  1  0
 51 52  1  0
 50 53  1  0
 53 54  1  0
 54 55  1  0
 41  3  1  0
 53 44  1  0
 22 14  1  0
M  END
>  <ChEMBL_IDs>  (326) 
CHEMBL341906

>  <target_organism>  (326) 
Hepatitis C virus,None

>  <target_molecule_pref_name>  (326) 
nan

>  <# Known Targets>  (326) 
nan

>  <Known Targets>  (326) 
nan

>  <smiles>  (326) 
CC[C@H]1OC(=O)C[C@@H](O)[C@H](C)[C@@H](OC2OC(C)C(O)C(=O)C2O)[C@@H](CC(OC)OC)C[C@@H](C)C(=O)/C=C/C(C)=C/[C@@H]1COC1OC(C)C(O)C(OC)C1OC

$$$$

     RDKit          2D

 54 56  0  0  0  0  0  0  0  0999 V2000
   18.4042   -4.8111    0.0000 C   0  0  0  0  0  0  0  0  0  0  0  0
   17.0184   -4.2371    0.0000 C   0  0  0  0  0  0  0  0  0  0  0  0
   16.8226   -2.7499    0.0000 C   0  0  0  0  0  0  0  0  0  0  0  0
   15.4367   -2.1759    0.0000 C   0  0  0  0  0  0  0  0  0  0  0  0
   14.2467   -3.0890    0.0000 O   0  0  0  0  0  0  0  0  0  0  0  0
   15.2410   -0.6887    0.0000 O   0  0  0  0  0  0  0  0  0  0  0  0
   13.8551   -0.1147    0.0000 C   0  0  0  0  0  0  0  0  0  0  0  0
   12.6651   -1.0279    0.0000 C   0  0  0  0  0  0  0  0  0  0  0  0
   12.8609   -2.5150    0.0000 C   0  0  0  0  0  0  0  0  0  0  0  0
   11.2793   -0.4538    0.0000 O   0  0  0  0  0  0  0  0  0  0  0  0
   11.0835    1.0333    0.0000 C   0  0  0  0  0  0  0  0  0  0  0  0
    9.6977    1.6074    0.0000 O   0  0  0  0  0  0  0  0  0  0  0  0
    8.5076    0.6942    0.0000 C   0  0  0  0  0  0  0  0  0  0  0  0
    7.1218    1.2682    0.0000 C   0  0  0  0  0  0  0  0  0  0  0  0
    6.9260    2.7554    0.0000 C   0  0  0  0  0  0  0  0  0  0  0  0
    5.9318    0.3551    0.0000 O   0  0  0  0  0  0  0  0  0  0  0  0
    6.1276   -1.1321    0.0000 C   0  0  0  0  0  0  0  0  0  0  0  0
    4.9376   -2.0452    0.0000 O   0  0  0  0  0  0  0  0  0  0  0  0
    3.5517   -1.4712    0.0000 C   0  0  0  0  0  0  0  0  0  0  0  0
    2.7184   -2.7184    0.0000 C   0  0  0  0  0  0  0  0  0  0  0  0
    3.7790   -3.7790    0.0000 O   0  0  0  0  0  0  0  0  0  0  0  0
    5.2279   -3.3908    0.0000 C   0  0  0  0  0  0  0  0  0  0  0  0
    1.4712   -3.5517    0.0000 C   0  0  0  0  0  0  0  0  0  0  0  0
    2.0452   -4.9376    0.0000 O   0  0  0  0  0  0  0  0  0  0  0  0
    0.0000   -3.8444    0.0000 C   0  0  0  0  0  0  0  0  0  0  0  0
   -1.4712   -3.5517    0.0000 C   0  0  0  0  0  0  0  0  0  0  0  0
   -2.0452   -4.9376    0.0000 O   0  0  0  0  0  0  0  0  0  0  0  0
   -2.7184   -2.7184    0.0000 O   0  0  0  0  0  0  0  0  0  0  0  0
   -3.5517   -1.4712    0.0000 C   0  0  0  0  0  0  0  0  0  0  0  0
   -4.9376   -2.0452    0.0000 C   0  0  0  0  0  0  0  0  0  0  0  0
   -3.8444   -0.0000    0.0000 C   0  0  0  0  0  0  0  0  0  0  0  0
   -3.5517    1.4712    0.0000 C   0  0  0  0  0  0  0  0  0  0  0  0
   -2.7184    2.7184    0.0000 C   0  0  0  0  0  0  0  0  0  0  0  0
   -1.4712    3.5517    0.0000 C   0  0  0  0  0  0  0  0  0  0  0  0
   -0.0000    3.8444    0.0000 C   0  0  0  0  0  0  0  0  0  0  0  0
    1.4712    3.5517    0.0000 C   0  0  0  0  0  0  0  0  0  0  0  0
    2.0452    4.9376    0.0000 O   0  0  0  0  0  0  0  0  0  0  0  0
    2.7184    2.7184    0.0000 C   0  0  0  0  0  0  0  0  0  0  0  0
    3.7790    3.7790    0.0000 C   0  0  0  0  0  0  0  0  0  0  0  0
    3.5517    1.4712    0.0000 C   0  0  0  0  0  0  0  0  0  0  0  0
    3.8444   -0.0000    0.0000 C   0  0  0  0  0  0  0  0  0  0  0  0
    5.3444   -0.0000    0.0000 C   0  0  0  0  0  0  0  0  0  0  0  0
    6.0944    1.2990    0.0000 C   0  0  0  0  0  0  0  0  0  0  0  0
    7.5498    1.6620    0.0000 O   0  0  0  0  0  0  0  0  0  0  0  0
    7.5134   -1.7061    0.0000 C   0  0  0  0  0  0  0  0  0  0  0  0
    7.7092   -3.1933    0.0000 O   0  0  0  0  0  0  0  0  0  0  0  0
    8.7034   -0.7929    0.0000 C   0  0  0  0  0  0  0  0  0  0  0  0
   10.0893   -1.3670    0.0000 N   0  0  0  0  0  0  0  0  0  0  0  0
   10.2850   -2.8541    0.0000 C   0  0  0  0  0  0  0  0  0  0  0  0
   11.4649   -0.7689    0.0000 C   0  0  0  0  0  0  0  0  0  0  0  0
   12.2735    1.9465    0.0000 C   0  0  0  0  0  0  0  0  0  0  0  0
   13.6593    1.3725    0.0000 C   0  0  0  0  0  0  0  0  0  0  0  0
   13.9840    2.8369    0.0000 C   0  0  0  0  0  0  0  0  0  0  0  0
   15.1579    1.3070    0.0000 O   0  0  0  0  0  0  0  0  0  0  0  0
  1  2  1  0
  2  3  1  0
  3  4  1  0
  4  5  2  0
  4  6  1  0
  6  7  1  0
  7  8  1  0
  8  9  1  0
  8 10  1  0
 10 11  1  0
 11 12  1  0
 12 13  1  0
 13 14  1  0
 14 15  1  0
 14 16  1  0
 16 17  1  0
 17 18  1  0
 19 18  1  6
 19 20  1  0
 20 21  1  1
 21 22  1  0
 20 23  1  0
 23 24  1  6
 23 25  1  0
 25 26  1  0
 26 27  2  0
 26 28  1  0
 28 29  1  0
 29 30  1  6
 29 31  1  0
 31 32  1  0
 32 33  2  0
 33 34  1  0
 34 35  2  0
 35 36  1  0
 36 37  1  6
 36 38  1  0
 38 39  1  6
 38 40  1  0
 40 41  1  0
 41 42  1  6
 42 43  1  0
 43 44  2  0
 17 45  1  0
 45 46  1  0
 45 47  1  0
 47 48  1  0
 48 49  1  0
 48 50  1  0
 11 51  1  0
 51 52  1  0
 52 53  1  0
 52 54  1  0
 52  7  1  0
 47 13  1  0
 41 19  1  0
M  END
>  <ChEMBL_IDs>  (327) 
CHEMBL317991

>  <target_organism>  (327) 
None

>  <target_molecule_pref_name>  (327) 
nan

>  <# Known Targets>  (327) 
nan

>  <Known Targets>  (327) 
nan

>  <smiles>  (327) 
CCCC(=O)OC1C(C)OC(OC2C(C)OC(O[C@@H]3[C@@H](OC)[C@H](O)CC(=O)O[C@H](C)C/C=C/C=C/[C@H](O)[C@H](C)C[C@@H]3CC=O)C(O)C2N(C)C)CC1(C)O

$$$$

     RDKit          2D

 54 56  0  0  0  0  0  0  0  0999 V2000
   -4.1911  -12.3247    0.0000 C   0  0  0  0  0  0  0  0  0  0  0  0
   -3.0011  -11.4115    0.0000 C   0  0  0  0  0  0  0  0  0  0  0  0
   -1.6153  -11.9856    0.0000 C   0  0  0  0  0  0  0  0  0  0  0  0
   -0.4252  -11.0724    0.0000 C   0  0  0  0  0  0  0  0  0  0  0  0
   -0.6210   -9.5852    0.0000 O   0  0  0  0  0  0  0  0  0  0  0  0
    0.9606  -11.6464    0.0000 O   0  0  0  0  0  0  0  0  0  0  0  0
    2.1506  -10.7333    0.0000 C   0  0  0  0  0  0  0  0  0  0  0  0
    1.9548   -9.2461    0.0000 C   0  0  0  0  0  0  0  0  0  0  0  0
    0.5690   -8.6721    0.0000 C   0  0  0  0  0  0  0  0  0  0  0  0
    3.1449   -8.3330    0.0000 O   0  0  0  0  0  0  0  0  0  0  0  0
    4.5307   -8.9070    0.0000 C   0  0  0  0  0  0  0  0  0  0  0  0
    5.7207   -7.9939    0.0000 O   0  0  0  0  0  0  0  0  0  0  0  0
    5.5249   -6.5067    0.0000 C   0  0  0  0  0  0  0  0  0  0  0  0
    6.7150   -5.5936    0.0000 C   0  0  0  0  0  0  0  0  0  0  0  0
    8.1008   -6.1676    0.0000 C   0  0  0  0  0  0  0  0  0  0  0  0
    6.5192   -4.1064    0.0000 O   0  0  0  0  0  0  0  0  0  0  0  0
    5.1333   -3.5324    0.0000 C   0  0  0  0  0  0  0  0  0  0  0  0
    4.9376   -2.0452    0.0000 O   0  0  0  0  0  0  0  0  0  0  0  0
    6.1276   -1.1321    0.0000 C   0  0  0  0  0  0  0  0  0  0  0  0
    5.4642    0.2132    0.0000 C   0  0  0  0  0  0  0  0  0  0  0  0
    4.0153   -0.1750    0.0000 C   0  0  0  0  0  0  0  0  0  0  0  0
    3.6270   -1.6239    0.0000 C   0  0  0  0  0  0  0  0  0  0  0  0
    2.1781   -2.0121    0.0000 O   0  0  0  0  0  0  0  0  0  0  0  0
    5.3660    1.7100    0.0000 C   0  0  0  0  0  0  0  0  0  0  0  0
    5.8482    3.1304    0.0000 C   0  0  0  0  0  0  0  0  0  0  0  0
    4.5492    3.8804    0.0000 C   0  0  0  0  0  0  0  0  0  0  0  0
    6.8372    4.2582    0.0000 C   0  0  0  0  0  0  0  0  0  0  0  0
    5.9241    5.4482    0.0000 O   0  0  0  0  0  0  0  0  0  0  0  0
    8.1825    4.9216    0.0000 C   0  0  0  0  0  0  0  0  0  0  0  0
    9.6793    5.0197    0.0000 C   0  0  0  0  0  0  0  0  0  0  0  0
   11.0997    4.5376    0.0000 C   0  0  0  0  0  0  0  0  0  0  0  0
   12.2275    3.5486    0.0000 C   0  0  0  0  0  0  0  0  0  0  0  0
   12.8909    2.2032    0.0000 C   0  0  0  0  0  0  0  0  0  0  0  0
   12.9890    0.7065    0.0000 C   0  0  0  0  0  0  0  0  0  0  0  0
   14.4762    0.5107    0.0000 C   0  0  0  0  0  0  0  0  0  0  0  0
   12.5069   -0.7139    0.0000 O   0  0  0  0  0  0  0  0  0  0  0  0
   11.5178   -1.8417    0.0000 C   0  0  0  0  0  0  0  0  0  0  0  0
   12.4310   -3.0317    0.0000 O   0  0  0  0  0  0  0  0  0  0  0  0
   10.1725   -2.5051    0.0000 C   0  0  0  0  0  0  0  0  0  0  0  0
    8.6757   -2.6032    0.0000 C   0  0  0  0  0  0  0  0  0  0  0  0
    8.4800   -4.0904    0.0000 O   0  0  0  0  0  0  0  0  0  0  0  0
    7.2553   -2.1211    0.0000 C   0  0  0  0  0  0  0  0  0  0  0  0
    6.5053   -3.4201    0.0000 O   0  0  0  0  0  0  0  0  0  0  0  0
    7.2553   -4.7192    0.0000 C   0  0  0  0  0  0  0  0  0  0  0  0
    3.9433   -4.4455    0.0000 C   0  0  0  0  0  0  0  0  0  0  0  0
    2.5575   -3.8715    0.0000 O   0  0  0  0  0  0  0  0  0  0  0  0
    4.1391   -5.9327    0.0000 C   0  0  0  0  0  0  0  0  0  0  0  0
    2.9491   -6.8458    0.0000 N   0  0  0  0  0  0  0  0  0  0  0  0
    2.7792   -8.3362    0.0000 C   0  0  0  0  0  0  0  0  0  0  0  0
    1.5633   -6.2718    0.0000 C   0  0  0  0  0  0  0  0  0  0  0  0
    4.7265  -10.3942    0.0000 C   0  0  0  0  0  0  0  0  0  0  0  0
    3.5364  -11.3073    0.0000 C   0  0  0  0  0  0  0  0  0  0  0  0
    4.6424  -12.3207    0.0000 C   0  0  0  0  0  0  0  0  0  0  0  0
    2.7305  -12.5724    0.0000 O   0  0  0  0  0  0  0  0  0  0  0  0
  1  2  1  0
  2  3  1  0
  3  4  1  0
  4  5  2  0
  4  6  1  0
  6  7  1  0
  7  8  1  0
  8  9  1  0
  8 10  1  0
 10 11  1  0
 11 12  1  0
 12 13  1  0
 13 14  1  0
 14 15  1  0
 14 16  1  0
 16 17  1  0
 17 18  1  0
 18 19  1  0
 19 20  1  0
 20 21  1  0
 21 22  1  0
 22 23  2  0
 20 24  1  0
 24 25  1  0
 25 26  1  0
 25 27  1  0
 27 28  1  0
 27 29  1  0
 29 30  2  0
 30 31  1  0
 31 32  2  0
 32 33  1  0
 33 34  1  0
 34 35  1  0
 34 36  1  0
 36 37  1  0
 37 38  2  0
 37 39  1  0
 39 40  1  0
 40 41  1  0
 40 42  1  0
 42 43  1  0
 43 44  1  0
 17 45  1  0
 45 46  1  0
 45 47  1  0
 47 48  1  0
 48 49  1  0
 48 50  1  0
 11 51  1  0
 51 52  1  0
 52 53  1  0
 52 54  1  0
 52  7  1  0
 47 13  1  0
 42 19  1  0
M  END
>  <ChEMBL_IDs>  (328) 
nan

>  <target_organism>  (328) 
nan

>  <target_molecule_pref_name>  (328) 
nan

>  <# Known Targets>  (328) 
nan

>  <Known Targets>  (328) 
nan

>  <smiles>  (328) 
CCCC(=O)OC1C(C)OC(OC2C(C)OC(OC3C(CC=O)CC(C)C(O)/C=C\C=C/CC(C)OC(=O)CC(O)C3OC)C(O)C2N(C)C)CC1(C)O

$$$$

     RDKit          2D

 54 56  0  0  0  0  0  0  0  0999 V2000
   -4.1911  -12.3247    0.0000 C   0  0  0  0  0  0  0  0  0  0  0  0
   -3.0011  -11.4115    0.0000 C   0  0  0  0  0  0  0  0  0  0  0  0
   -1.6153  -11.9856    0.0000 C   0  0  0  0  0  0  0  0  0  0  0  0
   -0.4252  -11.0724    0.0000 C   0  0  0  0  0  0  0  0  0  0  0  0
   -0.6210   -9.5852    0.0000 O   0  0  0  0  0  0  0  0  0  0  0  0
    0.9606  -11.6464    0.0000 O   0  0  0  0  0  0  0  0  0  0  0  0
    2.1506  -10.7333    0.0000 C   0  0  0  0  0  0  0  0  0  0  0  0
    1.9548   -9.2461    0.0000 C   0  0  0  0  0  0  0  0  0  0  0  0
    0.5690   -8.6721    0.0000 C   0  0  0  0  0  0  0  0  0  0  0  0
    3.1449   -8.3330    0.0000 O   0  0  0  0  0  0  0  0  0  0  0  0
    4.5307   -8.9070    0.0000 C   0  0  0  0  0  0  0  0  0  0  0  0
    5.7207   -7.9939    0.0000 O   0  0  0  0  0  0  0  0  0  0  0  0
    5.5249   -6.5067    0.0000 C   0  0  0  0  0  0  0  0  0  0  0  0
    6.7150   -5.5936    0.0000 C   0  0  0  0  0  0  0  0  0  0  0  0
    8.1008   -6.1676    0.0000 C   0  0  0  0  0  0  0  0  0  0  0  0
    6.5192   -4.1064    0.0000 O   0  0  0  0  0  0  0  0  0  0  0  0
    5.1333   -3.5324    0.0000 C   0  0  0  0  0  0  0  0  0  0  0  0
    4.9376   -2.0452    0.0000 O   0  0  0  0  0  0  0  0  0  0  0  0
    6.1276   -1.1321    0.0000 C   0  0  0  0  0  0  0  0  0  0  0  0
    5.4642    0.2132    0.0000 C   0  0  0  0  0  0  0  0  0  0  0  0
    4.0153   -0.1750    0.0000 C   0  0  0  0  0  0  0  0  0  0  0  0
    3.6270   -1.6239    0.0000 C   0  0  0  0  0  0  0  0  0  0  0  0
    2.1781   -2.0121    0.0000 O   0  0  0  0  0  0  0  0  0  0  0  0
    5.3660    1.7100    0.0000 C   0  0  0  0  0  0  0  0  0  0  0  0
    5.8482    3.1304    0.0000 C   0  0  0  0  0  0  0  0  0  0  0  0
    4.5492    3.8804    0.0000 C   0  0  0  0  0  0  0  0  0  0  0  0
    6.8372    4.2582    0.0000 C   0  0  0  0  0  0  0  0  0  0  0  0
    5.9241    5.4482    0.0000 O   0  0  0  0  0  0  0  0  0  0  0  0
    8.1825    4.9216    0.0000 C   0  0  0  0  0  0  0  0  0  0  0  0
    9.6793    5.0197    0.0000 C   0  0  0  0  0  0  0  0  0  0  0  0
   11.0997    4.5376    0.0000 C   0  0  0  0  0  0  0  0  0  0  0  0
   12.2275    3.5486    0.0000 C   0  0  0  0  0  0  0  0  0  0  0  0
   12.8909    2.2032    0.0000 C   0  0  0  0  0  0  0  0  0  0  0  0
   12.9890    0.7065    0.0000 C   0  0  0  0  0  0  0  0  0  0  0  0
   14.4762    0.5107    0.0000 C   0  0  0  0  0  0  0  0  0  0  0  0
   12.5069   -0.7139    0.0000 O   0  0  0  0  0  0  0  0  0  0  0  0
   11.5178   -1.8417    0.0000 C   0  0  0  0  0  0  0  0  0  0  0  0
   12.4310   -3.0317    0.0000 O   0  0  0  0  0  0  0  0  0  0  0  0
   10.1725   -2.5051    0.0000 C   0  0  0  0  0  0  0  0  0  0  0  0
    8.6757   -2.6032    0.0000 C   0  0  0  0  0  0  0  0  0  0  0  0
    8.4800   -4.0904    0.0000 O   0  0  0  0  0  0  0  0  0  0  0  0
    7.2553   -2.1211    0.0000 C   0  0  0  0  0  0  0  0  0  0  0  0
    6.5053   -3.4201    0.0000 O   0  0  0  0  0  0  0  0  0  0  0  0
    7.2553   -4.7192    0.0000 C   0  0  0  0  0  0  0  0  0  0  0  0
    3.9433   -4.4455    0.0000 C   0  0  0  0  0  0  0  0  0  0  0  0
    2.5575   -3.8715    0.0000 O   0  0  0  0  0  0  0  0  0  0  0  0
    4.1391   -5.9327    0.0000 C   0  0  0  0  0  0  0  0  0  0  0  0
    2.9491   -6.8458    0.0000 N   0  0  0  0  0  0  0  0  0  0  0  0
    2.7792   -8.3362    0.0000 C   0  0  0  0  0  0  0  0  0  0  0  0
    1.5633   -6.2718    0.0000 C   0  0  0  0  0  0  0  0  0  0  0  0
    4.7265  -10.3942    0.0000 C   0  0  0  0  0  0  0  0  0  0  0  0
    3.5364  -11.3073    0.0000 C   0  0  0  0  0  0  0  0  0  0  0  0
    4.6424  -12.3207    0.0000 C   0  0  0  0  0  0  0  0  0  0  0  0
    2.7305  -12.5724    0.0000 O   0  0  0  0  0  0  0  0  0  0  0  0
  1  2  1  0
  2  3  1  0
  3  4  1  0
  4  5  2  0
  4  6  1  0
  6  7  1  0
  7  8  1  0
  8  9  1  0
  8 10  1  0
 10 11  1  0
 11 12  1  0
 12 13  1  0
 13 14  1  0
 14 15  1  0
 14 16  1  0
 16 17  1  0
 17 18  1  0
 18 19  1  0
 19 20  1  0
 20 21  1  0
 21 22  1  0
 22 23  2  0
 20 24  1  0
 24 25  1  0
 25 26  1  0
 25 27  1  0
 27 28  1  0
 27 29  1  0
 29 30  2  0
 30 31  1  0
 31 32  2  0
 32 33  1  0
 33 34  1  0
 34 35  1  0
 34 36  1  0
 36 37  1  0
 37 38  2  0
 37 39  1  0
 39 40  1  0
 40 41  1  0
 40 42  1  0
 42 43  1  0
 43 44  1  0
 17 45  1  0
 45 46  1  0
 45 47  1  0
 47 48  1  0
 48 49  1  0
 48 50  1  0
 11 51  1  0
 51 52  1  0
 52 53  1  0
 52 54  1  0
 52  7  1  0
 47 13  1  0
 42 19  1  0
M  END
>  <ChEMBL_IDs>  (329) 
nan

>  <target_organism>  (329) 
nan

>  <target_molecule_pref_name>  (329) 
nan

>  <# Known Targets>  (329) 
nan

>  <Known Targets>  (329) 
nan

>  <smiles>  (329) 
CCCC(=O)OC1C(C)OC(OC2C(C)OC(OC3C(CC=O)CC(C)C(O)/C=C\C=C/CC(C)OC(=O)CC(O)C3OC)C(O)C2N(C)C)CC1(C)O

$$$$

     RDKit          2D

 54 56  0  0  0  0  0  0  0  0999 V2000
   -4.1911  -12.3247    0.0000 C   0  0  0  0  0  0  0  0  0  0  0  0
   -3.0011  -11.4115    0.0000 C   0  0  0  0  0  0  0  0  0  0  0  0
   -1.6153  -11.9856    0.0000 C   0  0  0  0  0  0  0  0  0  0  0  0
   -0.4252  -11.0724    0.0000 C   0  0  0  0  0  0  0  0  0  0  0  0
   -0.6210   -9.5852    0.0000 O   0  0  0  0  0  0  0  0  0  0  0  0
    0.9606  -11.6464    0.0000 O   0  0  0  0  0  0  0  0  0  0  0  0
    2.1506  -10.7333    0.0000 C   0  0  0  0  0  0  0  0  0  0  0  0
    1.9548   -9.2461    0.0000 C   0  0  0  0  0  0  0  0  0  0  0  0
    0.5690   -8.6721    0.0000 C   0  0  0  0  0  0  0  0  0  0  0  0
    3.1449   -8.3330    0.0000 O   0  0  0  0  0  0  0  0  0  0  0  0
    4.5307   -8.9070    0.0000 C   0  0  0  0  0  0  0  0  0  0  0  0
    5.7207   -7.9939    0.0000 O   0  0  0  0  0  0  0  0  0  0  0  0
    5.5249   -6.5067    0.0000 C   0  0  0  0  0  0  0  0  0  0  0  0
    6.7150   -5.5936    0.0000 C   0  0  0  0  0  0  0  0  0  0  0  0
    8.1008   -6.1676    0.0000 C   0  0  0  0  0  0  0  0  0  0  0  0
    6.5192   -4.1064    0.0000 O   0  0  0  0  0  0  0  0  0  0  0  0
    5.1333   -3.5324    0.0000 C   0  0  0  0  0  0  0  0  0  0  0  0
    4.9376   -2.0452    0.0000 O   0  0  0  0  0  0  0  0  0  0  0  0
    6.1276   -1.1321    0.0000 C   0  0  0  0  0  0  0  0  0  0  0  0
    5.4642    0.2132    0.0000 C   0  0  0  0  0  0  0  0  0  0  0  0
    4.0153   -0.1750    0.0000 C   0  0  0  0  0  0  0  0  0  0  0  0
    3.6270   -1.6239    0.0000 C   0  0  0  0  0  0  0  0  0  0  0  0
    2.1781   -2.0121    0.0000 O   0  0  0  0  0  0  0  0  0  0  0  0
    5.3660    1.7100    0.0000 C   0  0  0  0  0  0  0  0  0  0  0  0
    5.8482    3.1304    0.0000 C   0  0  0  0  0  0  0  0  0  0  0  0
    4.5492    3.8804    0.0000 C   0  0  0  0  0  0  0  0  0  0  0  0
    6.8372    4.2582    0.0000 C   0  0  0  0  0  0  0  0  0  0  0  0
    5.9241    5.4482    0.0000 O   0  0  0  0  0  0  0  0  0  0  0  0
    8.1825    4.9216    0.0000 C   0  0  0  0  0  0  0  0  0  0  0  0
    9.6793    5.0197    0.0000 C   0  0  0  0  0  0  0  0  0  0  0  0
   11.0997    4.5376    0.0000 C   0  0  0  0  0  0  0  0  0  0  0  0
   12.2275    3.5486    0.0000 C   0  0  0  0  0  0  0  0  0  0  0  0
   12.8909    2.2032    0.0000 C   0  0  0  0  0  0  0  0  0  0  0  0
   12.9890    0.7065    0.0000 C   0  0  0  0  0  0  0  0  0  0  0  0
   14.4762    0.5107    0.0000 C   0  0  0  0  0  0  0  0  0  0  0  0
   12.5069   -0.7139    0.0000 O   0  0  0  0  0  0  0  0  0  0  0  0
   11.5178   -1.8417    0.0000 C   0  0  0  0  0  0  0  0  0  0  0  0
   12.4310   -3.0317    0.0000 O   0  0  0  0  0  0  0  0  0  0  0  0
   10.1725   -2.5051    0.0000 C   0  0  0  0  0  0  0  0  0  0  0  0
    8.6757   -2.6032    0.0000 C   0  0  0  0  0  0  0  0  0  0  0  0
    8.4800   -4.0904    0.0000 O   0  0  0  0  0  0  0  0  0  0  0  0
    7.2553   -2.1211    0.0000 C   0  0  0  0  0  0  0  0  0  0  0  0
    6.5053   -3.4201    0.0000 O   0  0  0  0  0  0  0  0  0  0  0  0
    7.2553   -4.7192    0.0000 C   0  0  0  0  0  0  0  0  0  0  0  0
    3.9433   -4.4455    0.0000 C   0  0  0  0  0  0  0  0  0  0  0  0
    2.5575   -3.8715    0.0000 O   0  0  0  0  0  0  0  0  0  0  0  0
    4.1391   -5.9327    0.0000 C   0  0  0  0  0  0  0  0  0  0  0  0
    2.9491   -6.8458    0.0000 N   0  0  0  0  0  0  0  0  0  0  0  0
    2.7792   -8.3362    0.0000 C   0  0  0  0  0  0  0  0  0  0  0  0
    1.5633   -6.2718    0.0000 C   0  0  0  0  0  0  0  0  0  0  0  0
    4.7265  -10.3942    0.0000 C   0  0  0  0  0  0  0  0  0  0  0  0
    3.5364  -11.3073    0.0000 C   0  0  0  0  0  0  0  0  0  0  0  0
    4.6424  -12.3207    0.0000 C   0  0  0  0  0  0  0  0  0  0  0  0
    2.7305  -12.5724    0.0000 O   0  0  0  0  0  0  0  0  0  0  0  0
  1  2  1  0
  2  3  1  0
  3  4  1  0
  4  5  2  0
  4  6  1  0
  6  7  1  0
  7  8  1  0
  8  9  1  0
  8 10  1  0
 10 11  1  0
 11 12  1  0
 12 13  1  0
 13 14  1  0
 14 15  1  0
 14 16  1  0
 16 17  1  0
 17 18  1  0
 18 19  1  0
 19 20  1  0
 20 21  1  0
 21 22  1  0
 22 23  2  0
 20 24  1  0
 24 25  1  0
 25 26  1  0
 25 27  1  0
 27 28  1  0
 27 29  1  0
 29 30  2  0
 30 31  1  0
 31 32  2  0
 32 33  1  0
 33 34  1  0
 34 35  1  0
 34 36  1  0
 36 37  1  0
 37 38  2  0
 37 39  1  0
 39 40  1  0
 40 41  1  0
 40 42  1  0
 42 43  1  0
 43 44  1  0
 17 45  1  0
 45 46  1  0
 45 47  1  0
 47 48  1  0
 48 49  1  0
 48 50  1  0
 11 51  1  0
 51 52  1  0
 52 53  1  0
 52 54  1  0
 52  7  1  0
 47 13  1  0
 42 19  1  0
M  END
>  <ChEMBL_IDs>  (330) 
nan

>  <target_organism>  (330) 
nan

>  <target_molecule_pref_name>  (330) 
nan

>  <# Known Targets>  (330) 
nan

>  <Known Targets>  (330) 
nan

>  <smiles>  (330) 
CCCC(=O)OC1C(C)OC(OC2C(C)OC(OC3C(CC=O)CC(C)C(O)/C=C\C=C/CC(C)OC(=O)CC(O)C3OC)C(O)C2N(C)C)CC1(C)O

$$$$

     RDKit          2D

 54 56  0  0  0  0  0  0  0  0999 V2000
   15.0299   -9.0377    0.0000 C   0  0  0  0  0  0  0  0  0  0  0  0
   13.8398   -9.9509    0.0000 C   0  0  0  0  0  0  0  0  0  0  0  0
   12.4540   -9.3768    0.0000 C   0  0  0  0  0  0  0  0  0  0  0  0
   12.2582   -7.8897    0.0000 O   0  0  0  0  0  0  0  0  0  0  0  0
   11.2640  -10.2900    0.0000 O   0  0  0  0  0  0  0  0  0  0  0  0
    9.8782   -9.7159    0.0000 C   0  0  0  0  0  0  0  0  0  0  0  0
    9.6824   -8.2288    0.0000 C   0  0  0  0  0  0  0  0  0  0  0  0
   10.8724   -7.3156    0.0000 C   0  0  0  0  0  0  0  0  0  0  0  0
    8.2966   -7.6548    0.0000 O   0  0  0  0  0  0  0  0  0  0  0  0
    7.1065   -8.5679    0.0000 C   0  0  0  0  0  0  0  0  0  0  0  0
    5.7207   -7.9939    0.0000 O   0  0  0  0  0  0  0  0  0  0  0  0
    5.5249   -6.5067    0.0000 C   0  0  0  0  0  0  0  0  0  0  0  0
    4.1391   -5.9327    0.0000 C   0  0  0  0  0  0  0  0  0  0  0  0
    2.9491   -6.8458    0.0000 C   0  0  0  0  0  0  0  0  0  0  0  0
    3.9433   -4.4455    0.0000 O   0  0  0  0  0  0  0  0  0  0  0  0
    5.1333   -3.5324    0.0000 C   0  0  0  0  0  0  0  0  0  0  0  0
    4.9376   -2.0452    0.0000 O   0  0  0  0  0  0  0  0  0  0  0  0
    3.5517   -1.4712    0.0000 C   0  0  0  0  0  0  0  0  0  0  0  0
    3.8444   -0.0000    0.0000 C   0  0  0  0  0  0  0  0  0  0  0  0
    5.3444    0.0000    0.0000 C   0  0  0  0  0  0  0  0  0  0  0  0
    6.0944   -1.2990    0.0000 C   0  0  0  0  0  0  0  0  0  0  0  0
    7.5944   -1.2990    0.0000 O   0  0  0  0  0  0  0  0  0  0  0  0
    3.5517    1.4712    0.0000 C   0  0  0  0  0  0  0  0  0  0  0  0
    2.7184    2.7184    0.0000 C   0  0  0  0  0  0  0  0  0  0  0  0
    3.7790    3.7790    0.0000 C   0  0  0  0  0  0  0  0  0  0  0  0
    1.4712    3.5517    0.0000 C   0  0  0  0  0  0  0  0  0  0  0  0
    2.0452    4.9376    0.0000 O   0  0  0  0  0  0  0  0  0  0  0  0
   -0.0000    3.8444    0.0000 C   0  0  0  0  0  0  0  0  0  0  0  0
   -1.4712    3.5517    0.0000 C   0  0  0  0  0  0  0  0  0  0  0  0
   -2.7184    2.7184    0.0000 C   0  0  0  0  0  0  0  0  0  0  0  0
   -3.5517    1.4712    0.0000 C   0  0  0  0  0  0  0  0  0  0  0  0
   -3.8444   -0.0000    0.0000 C   0  0  0  0  0  0  0  0  0  0  0  0
   -3.5517   -1.4712    0.0000 C   0  0  0  0  0  0  0  0  0  0  0  0
   -4.9376   -2.0452    0.0000 C   0  0  0  0  0  0  0  0  0  0  0  0
   -2.7184   -2.7184    0.0000 O   0  0  0  0  0  0  0  0  0  0  0  0
   -1.4712   -3.5517    0.0000 C   0  0  0  0  0  0  0  0  0  0  0  0
   -2.0452   -4.9376    0.0000 O   0  0  0  0  0  0  0  0  0  0  0  0
    0.0000   -3.8444    0.0000 C   0  0  0  0  0  0  0  0  0  0  0  0
    1.4712   -3.5517    0.0000 C   0  0  0  0  0  0  0  0  0  0  0  0
    2.0452   -4.9376    0.0000 O   0  0  0  0  0  0  0  0  0  0  0  0
    1.1321   -6.1276    0.0000 C   0  0  0  0  0  0  0  0  0  0  0  0
    2.7184   -2.7184    0.0000 C   0  0  0  0  0  0  0  0  0  0  0  0
    3.7790   -3.7790    0.0000 O   0  0  0  0  0  0  0  0  0  0  0  0
    3.3908   -5.2279    0.0000 C   0  0  0  0  0  0  0  0  0  0  0  0
    6.5192   -4.1064    0.0000 C   0  0  0  0  0  0  0  0  0  0  0  0
    7.7092   -3.1933    0.0000 O   0  0  0  0  0  0  0  0  0  0  0  0
    6.7150   -5.5936    0.0000 C   0  0  0  0  0  0  0  0  0  0  0  0
    8.1008   -6.1676    0.0000 N   0  0  0  0  0  0  0  0  0  0  0  0
    8.6506   -7.5632    0.0000 C   0  0  0  0  0  0  0  0  0  0  0  0
    9.2908   -5.2544    0.0000 C   0  0  0  0  0  0  0  0  0  0  0  0
    7.3023  -10.0551    0.0000 C   0  0  0  0  0  0  0  0  0  0  0  0
    8.6881  -10.6291    0.0000 C   0  0  0  0  0  0  0  0  0  0  0  0
    7.8822  -11.8942    0.0000 C   0  0  0  0  0  0  0  0  0  0  0  0
    9.7941  -11.6425    0.0000 O   0  0  0  0  0  0  0  0  0  0  0  0
  1  2  1  0
  2  3  1  0
  3  4  2  0
  3  5  1  0
  5  6  1  0
  6  7  1  0
  7  8  1  0
  7  9  1  0
  9 10  1  0
 10 11  1  0
 11 12  1  0
 12 13  1  0
 13 14  1  0
 13 15  1  0
 15 16  1  0
 16 17  1  0
 17 18  1  0
 18 19  1  0
 19 20  1  0
 20 21  1  0
 21 22  2  0
 19 23  1  0
 23 24  1  0
 24 25  1  0
 24 26  1  0
 26 27  1  0
 26 28  1  0
 28 29  2  0
 29 30  1  0
 30 31  2  0
 31 32  1  0
 32 33  1  0
 33 34  1  0
 33 35  1  0
 35 36  1  0
 36 37  2  0
 36 38  1  0
 38 39  1  0
 39 40  1  0
 40 41  1  0
 39 42  1  0
 42 43  1  0
 43 44  1  0
 16 45  1  0
 45 46  1  0
 45 47  1  0
 47 48  1  0
 48 49  1  0
 48 50  1  0
 10 51  1  0
 51 52  1  0
 52 53  1  0
 52 54  1  0
 52  6  1  0
 47 12  1  0
 42 18  1  0
M  END
>  <ChEMBL_IDs>  (331) 
nan

>  <target_organism>  (331) 
nan

>  <target_molecule_pref_name>  (331) 
nan

>  <# Known Targets>  (331) 
nan

>  <Known Targets>  (331) 
nan

>  <smiles>  (331) 
CCC(=O)OC1C(C)OC(OC2C(C)OC(OC3C(CC=O)CC(C)C(O)/C=C\C=C/CC(C)OC(=O)CC(OC)C3OC)C(O)C2N(C)C)CC1(C)O

$$$$

     RDKit          2D

 54 56  0  0  0  0  0  0  0  0999 V2000
    6.0944   -1.2990    0.0000 C   0  0  0  0  0  0  0  0  0  0  0  0
    5.3444    0.0000    0.0000 C   0  0  0  0  0  0  0  0  0  0  0  0
    3.8444    0.0000    0.0000 C   0  0  0  0  0  0  0  0  0  0  0  0
    3.5517   -1.4712    0.0000 O   0  0  0  0  0  0  0  0  0  0  0  0
    2.7184   -2.7184    0.0000 C   0  0  0  0  0  0  0  0  0  0  0  0
    3.7790   -3.7790    0.0000 O   0  0  0  0  0  0  0  0  0  0  0  0
    1.4712   -3.5517    0.0000 C   0  0  0  0  0  0  0  0  0  0  0  0
   -0.0000   -3.8444    0.0000 C   0  0  0  0  0  0  0  0  0  0  0  0
   -0.0000   -5.3444    0.0000 O   0  0  0  0  0  0  0  0  0  0  0  0
   -1.4712   -3.5517    0.0000 C   0  0  0  0  0  0  0  0  0  0  0  0
   -1.6507   -4.7534    0.0000 C   0  0  0  0  0  0  0  0  0  0  0  0
   -2.7184   -2.7184    0.0000 C   0  0  0  0  0  0  0  0  0  0  0  0
   -3.7790   -3.7790    0.0000 O   0  0  0  0  0  0  0  0  0  0  0  0
   -3.3908   -5.2279    0.0000 C   0  0  0  0  0  0  0  0  0  0  0  0
   -1.9419   -5.6162    0.0000 O   0  0  0  0  0  0  0  0  0  0  0  0
   -1.5537   -7.0650    0.0000 C   0  0  0  0  0  0  0  0  0  0  0  0
   -0.1048   -7.4533    0.0000 C   0  0  0  0  0  0  0  0  0  0  0  0
   -2.6144   -8.1257    0.0000 C   0  0  0  0  0  0  0  0  0  0  0  0
   -2.2261   -9.5746    0.0000 O   0  0  0  0  0  0  0  0  0  0  0  0
   -4.0632   -7.7375    0.0000 C   0  0  0  0  0  0  0  0  0  0  0  0
   -5.1239   -8.7981    0.0000 N   0  0  0  0  0  0  0  0  0  0  0  0
   -6.5728   -8.4099    0.0000 C   0  0  0  0  0  0  0  0  0  0  0  0
   -4.7357  -10.2470    0.0000 C   0  0  0  0  0  0  0  0  0  0  0  0
   -4.4515   -6.2886    0.0000 C   0  0  0  0  0  0  0  0  0  0  0  0
   -5.9004   -5.9004    0.0000 O   0  0  0  0  0  0  0  0  0  0  0  0
   -3.5517   -1.4712    0.0000 C   0  0  0  0  0  0  0  0  0  0  0  0
   -4.9376   -2.0452    0.0000 C   0  0  0  0  0  0  0  0  0  0  0  0
   -6.1276   -1.1321    0.0000 C   0  0  0  0  0  0  0  0  0  0  0  0
   -7.5134   -1.7061    0.0000 O   0  0  0  0  0  0  0  0  0  0  0  0
   -3.8444    0.0000    0.0000 C   0  0  0  0  0  0  0  0  0  0  0  0
   -3.5517    1.4712    0.0000 C   0  0  0  0  0  0  0  0  0  0  0  0
   -4.9376    2.0452    0.0000 C   0  0  0  0  0  0  0  0  0  0  0  0
   -2.7184    2.7184    0.0000 C   0  0  0  0  0  0  0  0  0  0  0  0
   -3.7790    3.7790    0.0000 O   0  0  0  0  0  0  0  0  0  0  0  0
   -1.4712    3.5517    0.0000 C   0  0  0  0  0  0  0  0  0  0  0  0
    0.0000    3.8444    0.0000 C   0  0  0  0  0  0  0  0  0  0  0  0
    1.4712    3.5517    0.0000 C   0  0  0  0  0  0  0  0  0  0  0  0
    2.0452    4.9376    0.0000 C   0  0  0  0  0  0  0  0  0  0  0  0
    2.7184    2.7184    0.0000 C   0  0  0  0  0  0  0  0  0  0  0  0
    3.5517    1.4712    0.0000 C   0  0  0  0  0  0  0  0  0  0  0  0
    4.9376    2.0452    0.0000 C   0  0  0  0  0  0  0  0  0  0  0  0
    6.1276    1.1321    0.0000 O   0  0  0  0  0  0  0  0  0  0  0  0
    7.5134    1.7061    0.0000 C   0  0  0  0  0  0  0  0  0  0  0  0
    8.7034    0.7929    0.0000 O   0  0  0  0  0  0  0  0  0  0  0  0
   10.0893    1.3670    0.0000 C   0  0  0  0  0  0  0  0  0  0  0  0
   11.2793    0.4538    0.0000 C   0  0  0  0  0  0  0  0  0  0  0  0
   10.2850    2.8541    0.0000 C   0  0  0  0  0  0  0  0  0  0  0  0
   11.6709    3.4282    0.0000 O   0  0  0  0  0  0  0  0  0  0  0  0
    9.0950    3.7673    0.0000 C   0  0  0  0  0  0  0  0  0  0  0  0
    9.2908    5.2544    0.0000 O   0  0  0  0  0  0  0  0  0  0  0  0
    8.1008    6.1676    0.0000 C   0  0  0  0  0  0  0  0  0  0  0  0
    7.7092    3.1933    0.0000 C   0  0  0  0  0  0  0  0  0  0  0  0
    6.5192    4.1064    0.0000 O   0  0  0  0  0  0  0  0  0  0  0  0
    6.7150    5.5936    0.0000 C   0  0  0  0  0  0  0  0  0  0  0  0
  1  2  1  0
  3  2  1  1
  3  4  1  0
  4  5  1  0
  5  6  2  0
  5  7  1  0
  7  8  1  0
  8  9  1  1
  8 10  1  0
 10 11  1  6
 10 12  1  0
 12 13  1  1
 14 13  1  6
 14 15  1  0
 15 16  1  0
 16 17  1  6
 16 18  1  0
 18 19  1  1
 18 20  1  0
 20 21  1  6
 21 22  1  0
 21 23  1  0
 20 24  1  0
 24 25  1  1
 12 26  1  0
 26 27  1  1
 27 28  1  0
 28 29  2  0
 26 30  1  0
 30 31  1  0
 31 32  1  1
 31 33  1  0
 33 34  2  0
 33 35  1  0
 35 36  2  0
 36 37  1  0
 37 38  1  0
 37 39  2  0
 39 40  1  0
 40 41  1  6
 41 42  1  0
 43 42  1  1
 43 44  1  0
 44 45  1  0
 45 46  1  1
 45 47  1  0
 47 48  1  6
 47 49  1  0
 49 50  1  6
 50 51  1  0
 49 52  1  0
 52 53  1  6
 53 54  1  0
 40  3  1  0
 52 43  1  0
 24 14  1  0
M  END
>  <ChEMBL_IDs>  (332) 
CHEMBL43441

>  <target_organism>  (332) 
Rattus norvegicus

>  <target_molecule_pref_name>  (332) 
nan

>  <# Known Targets>  (332) 
nan

>  <Known Targets>  (332) 
nan

>  <smiles>  (332) 
CC[C@H]1OC(=O)C[C@@H](O)[C@H](C)[C@@H](O[C@@H]2O[C@H](C)[C@@H](O)[C@H](N(C)C)[C@H]2O)[C@@H](CC=O)C[C@@H](C)C(=O)/C=C/C(C)=C/[C@@H]1CO[C@@H]1O[C@H](C)[C@@H](O)[C@@H](OC)[C@H]1OC

$$$$

     RDKit          2D

 54 56  0  0  0  0  0  0  0  0999 V2000
    6.0944   -1.2990    0.0000 C   0  0  0  0  0  0  0  0  0  0  0  0
    5.3444    0.0000    0.0000 C   0  0  0  0  0  0  0  0  0  0  0  0
    3.8444    0.0000    0.0000 C   0  0  0  0  0  0  0  0  0  0  0  0
    3.5517   -1.4712    0.0000 O   0  0  0  0  0  0  0  0  0  0  0  0
    2.7184   -2.7184    0.0000 C   0  0  0  0  0  0  0  0  0  0  0  0
    3.7790   -3.7790    0.0000 O   0  0  0  0  0  0  0  0  0  0  0  0
    1.4712   -3.5517    0.0000 C   0  0  0  0  0  0  0  0  0  0  0  0
   -0.0000   -3.8444    0.0000 C   0  0  0  0  0  0  0  0  0  0  0  0
   -0.0000   -5.3444    0.0000 O   0  0  0  0  0  0  0  0  0  0  0  0
   -1.4712   -3.5517    0.0000 C   0  0  0  0  0  0  0  0  0  0  0  0
   -1.6507   -4.7534    0.0000 C   0  0  0  0  0  0  0  0  0  0  0  0
   -2.7184   -2.7184    0.0000 C   0  0  0  0  0  0  0  0  0  0  0  0
   -3.7790   -3.7790    0.0000 O   0  0  0  0  0  0  0  0  0  0  0  0
   -3.3908   -5.2279    0.0000 C   0  0  0  0  0  0  0  0  0  0  0  0
   -1.9419   -5.6162    0.0000 O   0  0  0  0  0  0  0  0  0  0  0  0
   -1.5537   -7.0650    0.0000 C   0  0  0  0  0  0  0  0  0  0  0  0
   -0.1048   -7.4533    0.0000 C   0  0  0  0  0  0  0  0  0  0  0  0
   -2.6144   -8.1257    0.0000 C   0  0  0  0  0  0  0  0  0  0  0  0
   -2.2261   -9.5746    0.0000 O   0  0  0  0  0  0  0  0  0  0  0  0
   -4.0632   -7.7375    0.0000 C   0  0  0  0  0  0  0  0  0  0  0  0
   -5.1239   -8.7981    0.0000 N   0  0  0  0  0  0  0  0  0  0  0  0
   -6.5728   -8.4099    0.0000 C   0  0  0  0  0  0  0  0  0  0  0  0
   -4.7357  -10.2470    0.0000 C   0  0  0  0  0  0  0  0  0  0  0  0
   -4.4515   -6.2886    0.0000 C   0  0  0  0  0  0  0  0  0  0  0  0
   -5.9004   -5.9004    0.0000 O   0  0  0  0  0  0  0  0  0  0  0  0
   -3.5517   -1.4712    0.0000 C   0  0  0  0  0  0  0  0  0  0  0  0
   -4.9376   -2.0452    0.0000 C   0  0  0  0  0  0  0  0  0  0  0  0
   -6.1276   -1.1321    0.0000 C   0  0  0  0  0  0  0  0  0  0  0  0
   -7.5134   -1.7061    0.0000 O   0  0  0  0  0  0  0  0  0  0  0  0
   -3.8444    0.0000    0.0000 C   0  0  0  0  0  0  0  0  0  0  0  0
   -3.5517    1.4712    0.0000 C   0  0  0  0  0  0  0  0  0  0  0  0
   -4.9376    2.0452    0.0000 C   0  0  0  0  0  0  0  0  0  0  0  0
   -2.7184    2.7184    0.0000 C   0  0  0  0  0  0  0  0  0  0  0  0
   -3.7790    3.7790    0.0000 O   0  0  0  0  0  0  0  0  0  0  0  0
   -1.4712    3.5517    0.0000 C   0  0  0  0  0  0  0  0  0  0  0  0
    0.0000    3.8444    0.0000 C   0  0  0  0  0  0  0  0  0  0  0  0
    1.4712    3.5517    0.0000 C   0  0  0  0  0  0  0  0  0  0  0  0
    2.0452    4.9376    0.0000 C   0  0  0  0  0  0  0  0  0  0  0  0
    2.7184    2.7184    0.0000 C   0  0  0  0  0  0  0  0  0  0  0  0
    3.5517    1.4712    0.0000 C   0  0  0  0  0  0  0  0  0  0  0  0
    4.9376    2.0452    0.0000 C   0  0  0  0  0  0  0  0  0  0  0  0
    6.1276    1.1321    0.0000 O   0  0  0  0  0  0  0  0  0  0  0  0
    7.5134    1.7061    0.0000 C   0  0  0  0  0  0  0  0  0  0  0  0
    8.7034    0.7929    0.0000 O   0  0  0  0  0  0  0  0  0  0  0  0
   10.0893    1.3670    0.0000 C   0  0  0  0  0  0  0  0  0  0  0  0
   11.2793    0.4538    0.0000 C   0  0  0  0  0  0  0  0  0  0  0  0
   10.2850    2.8541    0.0000 C   0  0  0  0  0  0  0  0  0  0  0  0
   11.6709    3.4282    0.0000 O   0  0  0  0  0  0  0  0  0  0  0  0
    9.0950    3.7673    0.0000 C   0  0  0  0  0  0  0  0  0  0  0  0
    9.2908    5.2544    0.0000 O   0  0  0  0  0  0  0  0  0  0  0  0
    8.1008    6.1676    0.0000 C   0  0  0  0  0  0  0  0  0  0  0  0
    7.7092    3.1933    0.0000 C   0  0  0  0  0  0  0  0  0  0  0  0
    6.5192    4.1064    0.0000 O   0  0  0  0  0  0  0  0  0  0  0  0
    6.7150    5.5936    0.0000 C   0  0  0  0  0  0  0  0  0  0  0  0
  1  2  1  0
  3  2  1  1
  3  4  1  0
  4  5  1  0
  5  6  2  0
  5  7  1  0
  7  8  1  0
  8  9  1  1
  8 10  1  0
 10 11  1  6
 10 12  1  0
 12 13  1  1
 14 13  1  6
 14 15  1  0
 15 16  1  0
 16 17  1  6
 16 18  1  0
 18 19  1  1
 18 20  1  0
 20 21  1  1
 21 22  1  0
 21 23  1  0
 20 24  1  0
 24 25  1  1
 12 26  1  0
 26 27  1  1
 27 28  1  0
 28 29  2  0
 26 30  1  0
 30 31  1  0
 31 32  1  1
 31 33  1  0
 33 34  2  0
 33 35  1  0
 35 36  2  0
 36 37  1  0
 37 38  1  0
 37 39  2  0
 39 40  1  0
 40 41  1  6
 41 42  1  0
 43 42  1  1
 43 44  1  0
 44 45  1  0
 45 46  1  1
 45 47  1  0
 47 48  1  6
 47 49  1  0
 49 50  1  6
 50 51  1  0
 49 52  1  0
 52 53  1  6
 53 54  1  0
 40  3  1  0
 52 43  1  0
 24 14  1  0
M  END
>  <ChEMBL_IDs>  (333) 
CHEMBL3085320

>  <target_organism>  (333) 
None

>  <target_molecule_pref_name>  (333) 
nan

>  <# Known Targets>  (333) 
nan

>  <Known Targets>  (333) 
nan

>  <smiles>  (333) 
CC[C@H]1OC(=O)C[C@@H](O)[C@H](C)[C@@H](O[C@@H]2O[C@H](C)[C@@H](O)[C@@H](N(C)C)[C@H]2O)[C@@H](CC=O)C[C@@H](C)C(=O)/C=C/C(C)=C/[C@@H]1CO[C@@H]1O[C@H](C)[C@@H](O)[C@@H](OC)[C@H]1OC

$$$$

     RDKit          2D

 54 56  0  0  0  0  0  0  0  0999 V2000
    6.0944   -1.2990    0.0000 C   0  0  0  0  0  0  0  0  0  0  0  0
    5.3444    0.0000    0.0000 C   0  0  0  0  0  0  0  0  0  0  0  0
    3.8444    0.0000    0.0000 C   0  0  0  0  0  0  0  0  0  0  0  0
    3.5517   -1.4712    0.0000 O   0  0  0  0  0  0  0  0  0  0  0  0
    2.7184   -2.7184    0.0000 C   0  0  0  0  0  0  0  0  0  0  0  0
    3.7790   -3.7790    0.0000 O   0  0  0  0  0  0  0  0  0  0  0  0
    1.4712   -3.5517    0.0000 C   0  0  0  0  0  0  0  0  0  0  0  0
   -0.0000   -3.8444    0.0000 C   0  0  0  0  0  0  0  0  0  0  0  0
   -0.0000   -5.3444    0.0000 O   0  0  0  0  0  0  0  0  0  0  0  0
   -1.4712   -3.5517    0.0000 C   0  0  0  0  0  0  0  0  0  0  0  0
   -1.6507   -4.7534    0.0000 C   0  0  0  0  0  0  0  0  0  0  0  0
   -2.7184   -2.7184    0.0000 C   0  0  0  0  0  0  0  0  0  0  0  0
   -3.7790   -3.7790    0.0000 O   0  0  0  0  0  0  0  0  0  0  0  0
   -3.3908   -5.2279    0.0000 C   0  0  0  0  0  0  0  0  0  0  0  0
   -1.9419   -5.6162    0.0000 O   0  0  0  0  0  0  0  0  0  0  0  0
   -1.5537   -7.0650    0.0000 C   0  0  0  0  0  0  0  0  0  0  0  0
   -0.1048   -7.4533    0.0000 C   0  0  0  0  0  0  0  0  0  0  0  0
   -2.6144   -8.1257    0.0000 C   0  0  0  0  0  0  0  0  0  0  0  0
   -2.2261   -9.5746    0.0000 O   0  0  0  0  0  0  0  0  0  0  0  0
   -4.0632   -7.7375    0.0000 C   0  0  0  0  0  0  0  0  0  0  0  0
   -5.1239   -8.7981    0.0000 N   0  0  0  0  0  0  0  0  0  0  0  0
   -6.5728   -8.4099    0.0000 C   0  0  0  0  0  0  0  0  0  0  0  0
   -4.7357  -10.2470    0.0000 C   0  0  0  0  0  0  0  0  0  0  0  0
   -4.4515   -6.2886    0.0000 C   0  0  0  0  0  0  0  0  0  0  0  0
   -5.9004   -5.9004    0.0000 O   0  0  0  0  0  0  0  0  0  0  0  0
   -3.5517   -1.4712    0.0000 C   0  0  0  0  0  0  0  0  0  0  0  0
   -4.9376   -2.0452    0.0000 C   0  0  0  0  0  0  0  0  0  0  0  0
   -6.1276   -1.1321    0.0000 C   0  0  0  0  0  0  0  0  0  0  0  0
   -7.5134   -1.7061    0.0000 O   0  0  0  0  0  0  0  0  0  0  0  0
   -3.8444    0.0000    0.0000 C   0  0  0  0  0  0  0  0  0  0  0  0
   -3.5517    1.4712    0.0000 C   0  0  0  0  0  0  0  0  0  0  0  0
   -4.9376    2.0452    0.0000 C   0  0  0  0  0  0  0  0  0  0  0  0
   -2.7184    2.7184    0.0000 C   0  0  0  0  0  0  0  0  0  0  0  0
   -3.7790    3.7790    0.0000 O   0  0  0  0  0  0  0  0  0  0  0  0
   -1.4712    3.5517    0.0000 C   0  0  0  0  0  0  0  0  0  0  0  0
    0.0000    3.8444    0.0000 C   0  0  0  0  0  0  0  0  0  0  0  0
    1.4712    3.5517    0.0000 C   0  0  0  0  0  0  0  0  0  0  0  0
    2.0452    4.9376    0.0000 C   0  0  0  0  0  0  0  0  0  0  0  0
    2.7184    2.7184    0.0000 C   0  0  0  0  0  0  0  0  0  0  0  0
    3.5517    1.4712    0.0000 C   0  0  0  0  0  0  0  0  0  0  0  0
    4.9376    2.0452    0.0000 C   0  0  0  0  0  0  0  0  0  0  0  0
    6.1276    1.1321    0.0000 O   0  0  0  0  0  0  0  0  0  0  0  0
    7.5134    1.7061    0.0000 C   0  0  0  0  0  0  0  0  0  0  0  0
    8.7034    0.7929    0.0000 O   0  0  0  0  0  0  0  0  0  0  0  0
   10.0893    1.3670    0.0000 C   0  0  0  0  0  0  0  0  0  0  0  0
   11.2793    0.4538    0.0000 C   0  0  0  0  0  0  0  0  0  0  0  0
   10.2850    2.8541    0.0000 C   0  0  0  0  0  0  0  0  0  0  0  0
   11.6709    3.4282    0.0000 O   0  0  0  0  0  0  0  0  0  0  0  0
    9.0950    3.7673    0.0000 C   0  0  0  0  0  0  0  0  0  0  0  0
    9.2908    5.2544    0.0000 O   0  0  0  0  0  0  0  0  0  0  0  0
    8.1008    6.1676    0.0000 C   0  0  0  0  0  0  0  0  0  0  0  0
    7.7092    3.1933    0.0000 C   0  0  0  0  0  0  0  0  0  0  0  0
    6.5192    4.1064    0.0000 O   0  0  0  0  0  0  0  0  0  0  0  0
    6.7150    5.5936    0.0000 C   0  0  0  0  0  0  0  0  0  0  0  0
  1  2  1  0
  2  3  1  0
  3  4  1  0
  4  5  1  0
  5  6  2  0
  5  7  1  0
  7  8  1  0
  8  9  1  0
  8 10  1  0
 10 11  1  0
 10 12  1  0
 12 13  1  0
 13 14  1  0
 14 15  1  0
 15 16  1  0
 16 17  1  0
 16 18  1  0
 18 19  1  0
 18 20  1  0
 20 21  1  0
 21 22  1  0
 21 23  1  0
 20 24  1  0
 24 25  1  0
 12 26  1  0
 26 27  1  0
 27 28  1  0
 28 29  2  0
 26 30  1  0
 30 31  1  0
 31 32  1  0
 31 33  1  0
 33 34  2  0
 33 35  1  0
 35 36  2  0
 36 37  1  0
 37 38  1  0
 37 39  2  0
 39 40  1  0
 40 41  1  0
 41 42  1  0
 42 43  1  0
 43 44  1  0
 44 45  1  0
 45 46  1  0
 45 47  1  0
 47 48  1  0
 47 49  1  0
 49 50  1  0
 50 51  1  0
 49 52  1  0
 52 53  1  0
 53 54  1  0
 40  3  1  0
 52 43  1  0
 24 14  1  0
M  END
>  <ChEMBL_IDs>  (334) 
nan

>  <target_organism>  (334) 
nan

>  <target_molecule_pref_name>  (334) 
nan

>  <# Known Targets>  (334) 
nan

>  <Known Targets>  (334) 
nan

>  <smiles>  (334) 
CCC1OC(=O)CC(O)C(C)C(OC2OC(C)C(O)C(N(C)C)C2O)C(CC=O)CC(C)C(=O)/C=C\C(C)=C/C1COC1OC(C)C(O)C(OC)C1OC

$$$$

     RDKit          2D

 54 56  0  0  0  0  0  0  0  0999 V2000
    6.0944   -1.2990    0.0000 C   0  0  0  0  0  0  0  0  0  0  0  0
    5.3444    0.0000    0.0000 C   0  0  0  0  0  0  0  0  0  0  0  0
    3.8444    0.0000    0.0000 C   0  0  0  0  0  0  0  0  0  0  0  0
    3.5517   -1.4712    0.0000 O   0  0  0  0  0  0  0  0  0  0  0  0
    2.7184   -2.7184    0.0000 C   0  0  0  0  0  0  0  0  0  0  0  0
    3.7790   -3.7790    0.0000 O   0  0  0  0  0  0  0  0  0  0  0  0
    1.4712   -3.5517    0.0000 C   0  0  0  0  0  0  0  0  0  0  0  0
   -0.0000   -3.8444    0.0000 C   0  0  0  0  0  0  0  0  0  0  0  0
   -0.0000   -5.3444    0.0000 O   0  0  0  0  0  0  0  0  0  0  0  0
   -1.4712   -3.5517    0.0000 C   0  0  0  0  0  0  0  0  0  0  0  0
   -1.6507   -4.7534    0.0000 C   0  0  0  0  0  0  0  0  0  0  0  0
   -2.7184   -2.7184    0.0000 C   0  0  0  0  0  0  0  0  0  0  0  0
   -3.7790   -3.7790    0.0000 O   0  0  0  0  0  0  0  0  0  0  0  0
   -3.3908   -5.2279    0.0000 C   0  0  0  0  0  0  0  0  0  0  0  0
   -1.9419   -5.6162    0.0000 O   0  0  0  0  0  0  0  0  0  0  0  0
   -1.5537   -7.0650    0.0000 C   0  0  0  0  0  0  0  0  0  0  0  0
   -0.1048   -7.4533    0.0000 C   0  0  0  0  0  0  0  0  0  0  0  0
   -2.6144   -8.1257    0.0000 C   0  0  0  0  0  0  0  0  0  0  0  0
   -2.2261   -9.5746    0.0000 O   0  0  0  0  0  0  0  0  0  0  0  0
   -4.0632   -7.7375    0.0000 C   0  0  0  0  0  0  0  0  0  0  0  0
   -5.1239   -8.7981    0.0000 N   0  0  0  0  0  0  0  0  0  0  0  0
   -6.5728   -8.4099    0.0000 C   0  0  0  0  0  0  0  0  0  0  0  0
   -4.7357  -10.2470    0.0000 C   0  0  0  0  0  0  0  0  0  0  0  0
   -4.4515   -6.2886    0.0000 C   0  0  0  0  0  0  0  0  0  0  0  0
   -5.9004   -5.9004    0.0000 O   0  0  0  0  0  0  0  0  0  0  0  0
   -3.5517   -1.4712    0.0000 C   0  0  0  0  0  0  0  0  0  0  0  0
   -4.9376   -2.0452    0.0000 C   0  0  0  0  0  0  0  0  0  0  0  0
   -6.1276   -1.1321    0.0000 C   0  0  0  0  0  0  0  0  0  0  0  0
   -7.5134   -1.7061    0.0000 Br  0  0  0  0  0  0  0  0  0  0  0  0
   -3.8444    0.0000    0.0000 C   0  0  0  0  0  0  0  0  0  0  0  0
   -3.5517    1.4712    0.0000 C   0  0  0  0  0  0  0  0  0  0  0  0
   -4.9376    2.0452    0.0000 C   0  0  0  0  0  0  0  0  0  0  0  0
   -2.7184    2.7184    0.0000 C   0  0  0  0  0  0  0  0  0  0  0  0
   -3.7790    3.7790    0.0000 O   0  0  0  0  0  0  0  0  0  0  0  0
   -1.4712    3.5517    0.0000 C   0  0  0  0  0  0  0  0  0  0  0  0
    0.0000    3.8444    0.0000 C   0  0  0  0  0  0  0  0  0  0  0  0
    1.4712    3.5517    0.0000 C   0  0  0  0  0  0  0  0  0  0  0  0
    2.0452    4.9376    0.0000 C   0  0  0  0  0  0  0  0  0  0  0  0
    2.7184    2.7184    0.0000 C   0  0  0  0  0  0  0  0  0  0  0  0
    3.5517    1.4712    0.0000 C   0  0  0  0  0  0  0  0  0  0  0  0
    4.9376    2.0452    0.0000 C   0  0  0  0  0  0  0  0  0  0  0  0
    6.1276    1.1321    0.0000 O   0  0  0  0  0  0  0  0  0  0  0  0
    7.5134    1.7061    0.0000 C   0  0  0  0  0  0  0  0  0  0  0  0
    8.7034    0.7929    0.0000 O   0  0  0  0  0  0  0  0  0  0  0  0
   10.0893    1.3670    0.0000 C   0  0  0  0  0  0  0  0  0  0  0  0
   11.2793    0.4538    0.0000 C   0  0  0  0  0  0  0  0  0  0  0  0
   10.2850    2.8541    0.0000 C   0  0  0  0  0  0  0  0  0  0  0  0
   11.6709    3.4282    0.0000 O   0  0  0  0  0  0  0  0  0  0  0  0
    9.0950    3.7673    0.0000 C   0  0  0  0  0  0  0  0  0  0  0  0
    9.2908    5.2544    0.0000 O   0  0  0  0  0  0  0  0  0  0  0  0
    8.1008    6.1676    0.0000 C   0  0  0  0  0  0  0  0  0  0  0  0
    7.7092    3.1933    0.0000 C   0  0  0  0  0  0  0  0  0  0  0  0
    6.5192    4.1064    0.0000 O   0  0  0  0  0  0  0  0  0  0  0  0
    6.7150    5.5936    0.0000 C   0  0  0  0  0  0  0  0  0  0  0  0
  1  2  1  0
  3  2  1  1
  3  4  1  0
  4  5  1  0
  5  6  2  0
  5  7  1  0
  7  8  1  0
  8  9  1  1
  8 10  1  0
 10 11  1  6
 10 12  1  0
 12 13  1  1
 14 13  1  6
 14 15  1  0
 15 16  1  0
 16 17  1  6
 16 18  1  0
 18 19  1  1
 18 20  1  0
 20 21  1  6
 21 22  1  0
 21 23  1  0
 20 24  1  0
 24 25  1  1
 12 26  1  0
 26 27  1  1
 27 28  1  0
 28 29  1  0
 26 30  1  0
 30 31  1  0
 31 32  1  1
 31 33  1  0
 33 34  2  0
 33 35  1  0
 35 36  2  0
 36 37  1  0
 37 38  1  0
 37 39  2  0
 39 40  1  0
 40 41  1  6
 41 42  1  0
 43 42  1  1
 43 44  1  0
 44 45  1  0
 45 46  1  1
 45 47  1  0
 47 48  1  6
 47 49  1  0
 49 50  1  6
 50 51  1  0
 49 52  1  0
 52 53  1  6
 53 54  1  0
 40  3  1  0
 52 43  1  0
 24 14  1  0
M  END
>  <ChEMBL_IDs>  (335) 
CHEMBL46574

>  <target_organism>  (335) 
Rattus norvegicus

>  <target_molecule_pref_name>  (335) 
nan

>  <# Known Targets>  (335) 
nan

>  <Known Targets>  (335) 
nan

>  <smiles>  (335) 
CC[C@H]1OC(=O)C[C@@H](O)[C@H](C)[C@@H](O[C@@H]2O[C@H](C)[C@@H](O)[C@H](N(C)C)[C@H]2O)[C@@H](CCBr)C[C@@H](C)C(=O)/C=C/C(C)=C/[C@@H]1CO[C@@H]1O[C@H](C)[C@@H](O)[C@@H](OC)[C@H]1OC

$$$$

     RDKit          2D

 54 56  0  0  0  0  0  0  0  0999 V2000
    6.0944   -1.2990    0.0000 C   0  0  0  0  0  0  0  0  0  0  0  0
    5.3444    0.0000    0.0000 C   0  0  0  0  0  0  0  0  0  0  0  0
    3.8444    0.0000    0.0000 C   0  0  0  0  0  0  0  0  0  0  0  0
    3.5517   -1.4712    0.0000 O   0  0  0  0  0  0  0  0  0  0  0  0
    2.7184   -2.7184    0.0000 C   0  0  0  0  0  0  0  0  0  0  0  0
    3.7790   -3.7790    0.0000 O   0  0  0  0  0  0  0  0  0  0  0  0
    1.4712   -3.5517    0.0000 C   0  0  0  0  0  0  0  0  0  0  0  0
   -0.0000   -3.8444    0.0000 C   0  0  0  0  0  0  0  0  0  0  0  0
   -0.0000   -5.3444    0.0000 O   0  0  0  0  0  0  0  0  0  0  0  0
   -1.4712   -3.5517    0.0000 C   0  0  0  0  0  0  0  0  0  0  0  0
   -1.6507   -4.7534    0.0000 C   0  0  0  0  0  0  0  0  0  0  0  0
   -2.7184   -2.7184    0.0000 C   0  0  0  0  0  0  0  0  0  0  0  0
   -3.7790   -3.7790    0.0000 O   0  0  0  0  0  0  0  0  0  0  0  0
   -3.3908   -5.2279    0.0000 C   0  0  0  0  0  0  0  0  0  0  0  0
   -1.9419   -5.6162    0.0000 O   0  0  0  0  0  0  0  0  0  0  0  0
   -1.5537   -7.0650    0.0000 C   0  0  0  0  0  0  0  0  0  0  0  0
   -0.1048   -7.4533    0.0000 C   0  0  0  0  0  0  0  0  0  0  0  0
   -2.6144   -8.1257    0.0000 C   0  0  0  0  0  0  0  0  0  0  0  0
   -2.2261   -9.5746    0.0000 O   0  0  0  0  0  0  0  0  0  0  0  0
   -4.0632   -7.7375    0.0000 C   0  0  0  0  0  0  0  0  0  0  0  0
   -5.1239   -8.7981    0.0000 N   0  0  0  0  0  0  0  0  0  0  0  0
   -6.5728   -8.4099    0.0000 C   0  0  0  0  0  0  0  0  0  0  0  0
   -4.7357  -10.2470    0.0000 C   0  0  0  0  0  0  0  0  0  0  0  0
   -4.4515   -6.2886    0.0000 C   0  0  0  0  0  0  0  0  0  0  0  0
   -5.9004   -5.9004    0.0000 O   0  0  0  0  0  0  0  0  0  0  0  0
   -3.5517   -1.4712    0.0000 C   0  0  0  0  0  0  0  0  0  0  0  0
   -4.9376   -2.0452    0.0000 C   0  0  0  0  0  0  0  0  0  0  0  0
   -6.1276   -1.1321    0.0000 C   0  0  0  0  0  0  0  0  0  0  0  0
   -7.5134   -1.7061    0.0000 Cl  0  0  0  0  0  0  0  0  0  0  0  0
   -3.8444    0.0000    0.0000 C   0  0  0  0  0  0  0  0  0  0  0  0
   -3.5517    1.4712    0.0000 C   0  0  0  0  0  0  0  0  0  0  0  0
   -4.9376    2.0452    0.0000 C   0  0  0  0  0  0  0  0  0  0  0  0
   -2.7184    2.7184    0.0000 C   0  0  0  0  0  0  0  0  0  0  0  0
   -3.7790    3.7790    0.0000 O   0  0  0  0  0  0  0  0  0  0  0  0
   -1.4712    3.5517    0.0000 C   0  0  0  0  0  0  0  0  0  0  0  0
    0.0000    3.8444    0.0000 C   0  0  0  0  0  0  0  0  0  0  0  0
    1.4712    3.5517    0.0000 C   0  0  0  0  0  0  0  0  0  0  0  0
    2.0452    4.9376    0.0000 C   0  0  0  0  0  0  0  0  0  0  0  0
    2.7184    2.7184    0.0000 C   0  0  0  0  0  0  0  0  0  0  0  0
    3.5517    1.4712    0.0000 C   0  0  0  0  0  0  0  0  0  0  0  0
    4.9376    2.0452    0.0000 C   0  0  0  0  0  0  0  0  0  0  0  0
    6.1276    1.1321    0.0000 O   0  0  0  0  0  0  0  0  0  0  0  0
    7.5134    1.7061    0.0000 C   0  0  0  0  0  0  0  0  0  0  0  0
    8.7034    0.7929    0.0000 O   0  0  0  0  0  0  0  0  0  0  0  0
   10.0893    1.3670    0.0000 C   0  0  0  0  0  0  0  0  0  0  0  0
   11.2793    0.4538    0.0000 C   0  0  0  0  0  0  0  0  0  0  0  0
   10.2850    2.8541    0.0000 C   0  0  0  0  0  0  0  0  0  0  0  0
   11.6709    3.4282    0.0000 O   0  0  0  0  0  0  0  0  0  0  0  0
    9.0950    3.7673    0.0000 C   0  0  0  0  0  0  0  0  0  0  0  0
    9.2908    5.2544    0.0000 O   0  0  0  0  0  0  0  0  0  0  0  0
    8.1008    6.1676    0.0000 C   0  0  0  0  0  0  0  0  0  0  0  0
    7.7092    3.1933    0.0000 C   0  0  0  0  0  0  0  0  0  0  0  0
    6.5192    4.1064    0.0000 O   0  0  0  0  0  0  0  0  0  0  0  0
    6.7150    5.5936    0.0000 C   0  0  0  0  0  0  0  0  0  0  0  0
  1  2  1  0
  3  2  1  1
  3  4  1  0
  4  5  1  0
  5  6  2  0
  5  7  1  0
  7  8  1  0
  8  9  1  1
  8 10  1  0
 10 11  1  6
 10 12  1  0
 12 13  1  1
 14 13  1  6
 14 15  1  0
 15 16  1  0
 16 17  1  6
 16 18  1  0
 18 19  1  1
 18 20  1  0
 20 21  1  6
 21 22  1  0
 21 23  1  0
 20 24  1  0
 24 25  1  1
 12 26  1  0
 26 27  1  1
 27 28  1  0
 28 29  1  0
 26 30  1  0
 30 31  1  0
 31 32  1  1
 31 33  1  0
 33 34  2  0
 33 35  1  0
 35 36  2  0
 36 37  1  0
 37 38  1  0
 37 39  2  0
 39 40  1  0
 40 41  1  6
 41 42  1  0
 43 42  1  1
 43 44  1  0
 44 45  1  0
 45 46  1  1
 45 47  1  0
 47 48  1  6
 47 49  1  0
 49 50  1  6
 50 51  1  0
 49 52  1  0
 52 53  1  6
 53 54  1  0
 40  3  1  0
 52 43  1  0
 24 14  1  0
M  END
>  <ChEMBL_IDs>  (336) 
CHEMBL43483

>  <target_organism>  (336) 
Rattus norvegicus

>  <target_molecule_pref_name>  (336) 
nan

>  <# Known Targets>  (336) 
nan

>  <Known Targets>  (336) 
nan

>  <smiles>  (336) 
CC[C@H]1OC(=O)C[C@@H](O)[C@H](C)[C@@H](O[C@@H]2O[C@H](C)[C@@H](O)[C@H](N(C)C)[C@H]2O)[C@@H](CCCl)C[C@@H](C)C(=O)/C=C/C(C)=C/[C@@H]1CO[C@@H]1O[C@H](C)[C@@H](O)[C@@H](OC)[C@H]1OC

$$$$

     RDKit          2D

 54 56  0  0  0  0  0  0  0  0999 V2000
    6.0944   -1.2990    0.0000 C   0  0  0  0  0  0  0  0  0  0  0  0
    5.3444    0.0000    0.0000 C   0  0  0  0  0  0  0  0  0  0  0  0
    3.8444    0.0000    0.0000 C   0  0  0  0  0  0  0  0  0  0  0  0
    3.5517   -1.4712    0.0000 O   0  0  0  0  0  0  0  0  0  0  0  0
    2.7184   -2.7184    0.0000 C   0  0  0  0  0  0  0  0  0  0  0  0
    3.7790   -3.7790    0.0000 O   0  0  0  0  0  0  0  0  0  0  0  0
    1.4712   -3.5517    0.0000 C   0  0  0  0  0  0  0  0  0  0  0  0
   -0.0000   -3.8444    0.0000 C   0  0  0  0  0  0  0  0  0  0  0  0
   -0.0000   -5.3444    0.0000 O   0  0  0  0  0  0  0  0  0  0  0  0
   -1.4712   -3.5517    0.0000 C   0  0  0  0  0  0  0  0  0  0  0  0
   -1.6507   -4.7534    0.0000 C   0  0  0  0  0  0  0  0  0  0  0  0
   -2.7184   -2.7184    0.0000 C   0  0  0  0  0  0  0  0  0  0  0  0
   -3.7790   -3.7790    0.0000 O   0  0  0  0  0  0  0  0  0  0  0  0
   -3.3908   -5.2279    0.0000 C   0  0  0  0  0  0  0  0  0  0  0  0
   -1.9419   -5.6162    0.0000 O   0  0  0  0  0  0  0  0  0  0  0  0
   -1.5537   -7.0650    0.0000 C   0  0  0  0  0  0  0  0  0  0  0  0
   -0.1048   -7.4533    0.0000 C   0  0  0  0  0  0  0  0  0  0  0  0
   -2.6144   -8.1257    0.0000 C   0  0  0  0  0  0  0  0  0  0  0  0
   -2.2261   -9.5746    0.0000 O   0  0  0  0  0  0  0  0  0  0  0  0
   -4.0632   -7.7375    0.0000 C   0  0  0  0  0  0  0  0  0  0  0  0
   -5.1239   -8.7981    0.0000 N   0  0  0  0  0  0  0  0  0  0  0  0
   -6.5728   -8.4099    0.0000 C   0  0  0  0  0  0  0  0  0  0  0  0
   -4.7357  -10.2470    0.0000 C   0  0  0  0  0  0  0  0  0  0  0  0
   -4.4515   -6.2886    0.0000 C   0  0  0  0  0  0  0  0  0  0  0  0
   -5.9004   -5.9004    0.0000 O   0  0  0  0  0  0  0  0  0  0  0  0
   -3.5517   -1.4712    0.0000 C   0  0  0  0  0  0  0  0  0  0  0  0
   -4.9376   -2.0452    0.0000 C   0  0  0  0  0  0  0  0  0  0  0  0
   -6.1276   -1.1321    0.0000 C   0  0  0  0  0  0  0  0  0  0  0  0
   -7.5134   -1.7061    0.0000 F   0  0  0  0  0  0  0  0  0  0  0  0
   -3.8444    0.0000    0.0000 C   0  0  0  0  0  0  0  0  0  0  0  0
   -3.5517    1.4712    0.0000 C   0  0  0  0  0  0  0  0  0  0  0  0
   -4.9376    2.0452    0.0000 C   0  0  0  0  0  0  0  0  0  0  0  0
   -2.7184    2.7184    0.0000 C   0  0  0  0  0  0  0  0  0  0  0  0
   -3.7790    3.7790    0.0000 O   0  0  0  0  0  0  0  0  0  0  0  0
   -1.4712    3.5517    0.0000 C   0  0  0  0  0  0  0  0  0  0  0  0
    0.0000    3.8444    0.0000 C   0  0  0  0  0  0  0  0  0  0  0  0
    1.4712    3.5517    0.0000 C   0  0  0  0  0  0  0  0  0  0  0  0
    2.0452    4.9376    0.0000 C   0  0  0  0  0  0  0  0  0  0  0  0
    2.7184    2.7184    0.0000 C   0  0  0  0  0  0  0  0  0  0  0  0
    3.5517    1.4712    0.0000 C   0  0  0  0  0  0  0  0  0  0  0  0
    4.9376    2.0452    0.0000 C   0  0  0  0  0  0  0  0  0  0  0  0
    6.1276    1.1321    0.0000 O   0  0  0  0  0  0  0  0  0  0  0  0
    7.5134    1.7061    0.0000 C   0  0  0  0  0  0  0  0  0  0  0  0
    8.7034    0.7929    0.0000 O   0  0  0  0  0  0  0  0  0  0  0  0
   10.0893    1.3670    0.0000 C   0  0  0  0  0  0  0  0  0  0  0  0
   11.2793    0.4538    0.0000 C   0  0  0  0  0  0  0  0  0  0  0  0
   10.2850    2.8541    0.0000 C   0  0  0  0  0  0  0  0  0  0  0  0
   11.6709    3.4282    0.0000 O   0  0  0  0  0  0  0  0  0  0  0  0
    9.0950    3.7673    0.0000 C   0  0  0  0  0  0  0  0  0  0  0  0
    9.2908    5.2544    0.0000 O   0  0  0  0  0  0  0  0  0  0  0  0
    8.1008    6.1676    0.0000 C   0  0  0  0  0  0  0  0  0  0  0  0
    7.7092    3.1933    0.0000 C   0  0  0  0  0  0  0  0  0  0  0  0
    6.5192    4.1064    0.0000 O   0  0  0  0  0  0  0  0  0  0  0  0
    6.7150    5.5936    0.0000 C   0  0  0  0  0  0  0  0  0  0  0  0
  1  2  1  0
  3  2  1  1
  3  4  1  0
  4  5  1  0
  5  6  2  0
  5  7  1  0
  7  8  1  0
  8  9  1  1
  8 10  1  0
 10 11  1  6
 10 12  1  0
 12 13  1  1
 14 13  1  6
 14 15  1  0
 15 16  1  0
 16 17  1  6
 16 18  1  0
 18 19  1  1
 18 20  1  0
 20 21  1  6
 21 22  1  0
 21 23  1  0
 20 24  1  0
 24 25  1  1
 12 26  1  0
 26 27  1  1
 27 28  1  0
 28 29  1  0
 26 30  1  0
 30 31  1  0
 31 32  1  1
 31 33  1  0
 33 34  2  0
 33 35  1  0
 35 36  2  0
 36 37  1  0
 37 38  1  0
 37 39  2  0
 39 40  1  0
 40 41  1  6
 41 42  1  0
 43 42  1  1
 43 44  1  0
 44 45  1  0
 45 46  1  1
 45 47  1  0
 47 48  1  6
 47 49  1  0
 49 50  1  6
 50 51  1  0
 49 52  1  0
 52 53  1  6
 53 54  1  0
 40  3  1  0
 52 43  1  0
 24 14  1  0
M  END
>  <ChEMBL_IDs>  (337) 
CHEMBL46420

>  <target_organism>  (337) 
Rattus norvegicus

>  <target_molecule_pref_name>  (337) 
nan

>  <# Known Targets>  (337) 
nan

>  <Known Targets>  (337) 
nan

>  <smiles>  (337) 
CC[C@H]1OC(=O)C[C@@H](O)[C@H](C)[C@@H](O[C@@H]2O[C@H](C)[C@@H](O)[C@H](N(C)C)[C@H]2O)[C@@H](CCF)C[C@@H](C)C(=O)/C=C/C(C)=C/[C@@H]1CO[C@@H]1O[C@H](C)[C@@H](O)[C@@H](OC)[C@H]1OC

$$$$

     RDKit          2D

 54 56  0  0  0  0  0  0  0  0999 V2000
    6.0944   -1.2990    0.0000 C   0  0  0  0  0  0  0  0  0  0  0  0
    5.3444    0.0000    0.0000 C   0  0  0  0  0  0  0  0  0  0  0  0
    3.8444    0.0000    0.0000 C   0  0  0  0  0  0  0  0  0  0  0  0
    3.5517   -1.4712    0.0000 O   0  0  0  0  0  0  0  0  0  0  0  0
    2.7184   -2.7184    0.0000 C   0  0  0  0  0  0  0  0  0  0  0  0
    3.7790   -3.7790    0.0000 O   0  0  0  0  0  0  0  0  0  0  0  0
    1.4712   -3.5517    0.0000 C   0  0  0  0  0  0  0  0  0  0  0  0
   -0.0000   -3.8444    0.0000 C   0  0  0  0  0  0  0  0  0  0  0  0
   -0.0000   -5.3444    0.0000 O   0  0  0  0  0  0  0  0  0  0  0  0
   -1.4712   -3.5517    0.0000 C   0  0  0  0  0  0  0  0  0  0  0  0
   -1.6507   -4.7534    0.0000 C   0  0  0  0  0  0  0  0  0  0  0  0
   -2.7184   -2.7184    0.0000 C   0  0  0  0  0  0  0  0  0  0  0  0
   -3.7790   -3.7790    0.0000 O   0  0  0  0  0  0  0  0  0  0  0  0
   -3.3908   -5.2279    0.0000 C   0  0  0  0  0  0  0  0  0  0  0  0
   -1.9419   -5.6162    0.0000 O   0  0  0  0  0  0  0  0  0  0  0  0
   -1.5537   -7.0650    0.0000 C   0  0  0  0  0  0  0  0  0  0  0  0
   -0.1048   -7.4533    0.0000 C   0  0  0  0  0  0  0  0  0  0  0  0
   -2.6144   -8.1257    0.0000 C   0  0  0  0  0  0  0  0  0  0  0  0
   -2.2261   -9.5746    0.0000 O   0  0  0  0  0  0  0  0  0  0  0  0
   -4.0632   -7.7375    0.0000 C   0  0  0  0  0  0  0  0  0  0  0  0
   -5.1239   -8.7981    0.0000 N   0  0  0  0  0  0  0  0  0  0  0  0
   -6.5728   -8.4099    0.0000 C   0  0  0  0  0  0  0  0  0  0  0  0
   -4.7357  -10.2470    0.0000 C   0  0  0  0  0  0  0  0  0  0  0  0
   -4.4515   -6.2886    0.0000 C   0  0  0  0  0  0  0  0  0  0  0  0
   -5.9004   -5.9004    0.0000 O   0  0  0  0  0  0  0  0  0  0  0  0
   -3.5517   -1.4712    0.0000 C   0  0  0  0  0  0  0  0  0  0  0  0
   -4.9376   -2.0452    0.0000 C   0  0  0  0  0  0  0  0  0  0  0  0
   -6.1276   -1.1321    0.0000 C   0  0  0  0  0  0  0  0  0  0  0  0
   -7.5134   -1.7061    0.0000 I   0  0  0  0  0  0  0  0  0  0  0  0
   -3.8444    0.0000    0.0000 C   0  0  0  0  0  0  0  0  0  0  0  0
   -3.5517    1.4712    0.0000 C   0  0  0  0  0  0  0  0  0  0  0  0
   -4.9376    2.0452    0.0000 C   0  0  0  0  0  0  0  0  0  0  0  0
   -2.7184    2.7184    0.0000 C   0  0  0  0  0  0  0  0  0  0  0  0
   -3.7790    3.7790    0.0000 O   0  0  0  0  0  0  0  0  0  0  0  0
   -1.4712    3.5517    0.0000 C   0  0  0  0  0  0  0  0  0  0  0  0
    0.0000    3.8444    0.0000 C   0  0  0  0  0  0  0  0  0  0  0  0
    1.4712    3.5517    0.0000 C   0  0  0  0  0  0  0  0  0  0  0  0
    2.0452    4.9376    0.0000 C   0  0  0  0  0  0  0  0  0  0  0  0
    2.7184    2.7184    0.0000 C   0  0  0  0  0  0  0  0  0  0  0  0
    3.5517    1.4712    0.0000 C   0  0  0  0  0  0  0  0  0  0  0  0
    4.9376    2.0452    0.0000 C   0  0  0  0  0  0  0  0  0  0  0  0
    6.1276    1.1321    0.0000 O   0  0  0  0  0  0  0  0  0  0  0  0
    7.5134    1.7061    0.0000 C   0  0  0  0  0  0  0  0  0  0  0  0
    8.7034    0.7929    0.0000 O   0  0  0  0  0  0  0  0  0  0  0  0
   10.0893    1.3670    0.0000 C   0  0  0  0  0  0  0  0  0  0  0  0
   11.2793    0.4538    0.0000 C   0  0  0  0  0  0  0  0  0  0  0  0
   10.2850    2.8541    0.0000 C   0  0  0  0  0  0  0  0  0  0  0  0
   11.6709    3.4282    0.0000 O   0  0  0  0  0  0  0  0  0  0  0  0
    9.0950    3.7673    0.0000 C   0  0  0  0  0  0  0  0  0  0  0  0
    9.2908    5.2544    0.0000 O   0  0  0  0  0  0  0  0  0  0  0  0
    8.1008    6.1676    0.0000 C   0  0  0  0  0  0  0  0  0  0  0  0
    7.7092    3.1933    0.0000 C   0  0  0  0  0  0  0  0  0  0  0  0
    6.5192    4.1064    0.0000 O   0  0  0  0  0  0  0  0  0  0  0  0
    6.7150    5.5936    0.0000 C   0  0  0  0  0  0  0  0  0  0  0  0
  1  2  1  0
  3  2  1  1
  3  4  1  0
  4  5  1  0
  5  6  2  0
  5  7  1  0
  7  8  1  0
  8  9  1  1
  8 10  1  0
 10 11  1  6
 10 12  1  0
 12 13  1  1
 14 13  1  6
 14 15  1  0
 15 16  1  0
 16 17  1  6
 16 18  1  0
 18 19  1  1
 18 20  1  0
 20 21  1  6
 21 22  1  0
 21 23  1  0
 20 24  1  0
 24 25  1  1
 12 26  1  0
 26 27  1  1
 27 28  1  0
 28 29  1  0
 26 30  1  0
 30 31  1  0
 31 32  1  1
 31 33  1  0
 33 34  2  0
 33 35  1  0
 35 36  2  0
 36 37  1  0
 37 38  1  0
 37 39  2  0
 39 40  1  0
 40 41  1  6
 41 42  1  0
 43 42  1  1
 43 44  1  0
 44 45  1  0
 45 46  1  1
 45 47  1  0
 47 48  1  6
 47 49  1  0
 49 50  1  6
 50 51  1  0
 49 52  1  0
 52 53  1  6
 53 54  1  0
 40  3  1  0
 52 43  1  0
 24 14  1  0
M  END
>  <ChEMBL_IDs>  (338) 
CHEMBL298441

>  <target_organism>  (338) 
None

>  <target_molecule_pref_name>  (338) 
nan

>  <# Known Targets>  (338) 
nan

>  <Known Targets>  (338) 
nan

>  <smiles>  (338) 
CC[C@H]1OC(=O)C[C@@H](O)[C@H](C)[C@@H](O[C@@H]2O[C@H](C)[C@@H](O)[C@H](N(C)C)[C@H]2O)[C@@H](CCI)C[C@@H](C)C(=O)/C=C/C(C)=C/[C@@H]1CO[C@@H]1O[C@H](C)[C@@H](O)[C@@H](OC)[C@H]1OC

$$$$

     RDKit          2D

 57 59  0  0  0  0  0  0  0  0999 V2000
    6.0944   -1.2990    0.0000 C   0  0  0  0  0  0  0  0  0  0  0  0
    5.3444    0.0000    0.0000 C   0  0  0  0  0  0  0  0  0  0  0  0
    3.8444    0.0000    0.0000 C   0  0  0  0  0  0  0  0  0  0  0  0
    3.5517   -1.4712    0.0000 O   0  0  0  0  0  0  0  0  0  0  0  0
    2.7184   -2.7184    0.0000 C   0  0  0  0  0  0  0  0  0  0  0  0
    3.7790   -3.7790    0.0000 O   0  0  0  0  0  0  0  0  0  0  0  0
    1.4712   -3.5517    0.0000 C   0  0  0  0  0  0  0  0  0  0  0  0
   -0.0000   -3.8444    0.0000 C   0  0  0  0  0  0  0  0  0  0  0  0
   -0.0000   -5.3444    0.0000 O   0  0  0  0  0  0  0  0  0  0  0  0
   -1.4712   -3.5517    0.0000 C   0  0  0  0  0  0  0  0  0  0  0  0
   -1.6507   -4.7534    0.0000 C   0  0  0  0  0  0  0  0  0  0  0  0
   -2.7184   -2.7184    0.0000 C   0  0  0  0  0  0  0  0  0  0  0  0
   -3.7790   -3.7790    0.0000 O   0  0  0  0  0  0  0  0  0  0  0  0
   -3.3908   -5.2279    0.0000 C   0  0  0  0  0  0  0  0  0  0  0  0
   -1.9419   -5.6162    0.0000 O   0  0  0  0  0  0  0  0  0  0  0  0
   -1.5537   -7.0650    0.0000 C   0  0  0  0  0  0  0  0  0  0  0  0
   -0.1048   -7.4533    0.0000 C   0  0  0  0  0  0  0  0  0  0  0  0
   -2.6144   -8.1257    0.0000 C   0  0  0  0  0  0  0  0  0  0  0  0
   -2.2261   -9.5746    0.0000 O   0  0  0  0  0  0  0  0  0  0  0  0
   -4.0632   -7.7375    0.0000 C   0  0  0  0  0  0  0  0  0  0  0  0
   -5.1239   -8.7981    0.0000 N   0  0  0  0  0  0  0  0  0  0  0  0
   -6.5728   -8.4099    0.0000 C   0  0  0  0  0  0  0  0  0  0  0  0
   -4.7357  -10.2470    0.0000 C   0  0  0  0  0  0  0  0  0  0  0  0
   -4.4515   -6.2886    0.0000 C   0  0  0  0  0  0  0  0  0  0  0  0
   -5.9004   -5.9004    0.0000 O   0  0  0  0  0  0  0  0  0  0  0  0
   -3.5517   -1.4712    0.0000 C   0  0  0  0  0  0  0  0  0  0  0  0
   -4.9376   -2.0452    0.0000 C   0  0  0  0  0  0  0  0  0  0  0  0
   -6.1276   -1.1321    0.0000 C   0  0  0  0  0  0  0  0  0  0  0  0
   -7.5134   -1.7061    0.0000 O   0  0  0  0  0  0  0  0  0  0  0  0
   -8.7034   -0.7929    0.0000 N   0  0  0  0  0  0  0  0  0  0  0  0
   -8.5076    0.6942    0.0000 O   0  0  0  0  0  0  0  0  0  0  0  0
  -10.0893   -1.3670    0.0000 O   0  0  0  0  0  0  0  0  0  0  0  0
   -3.8444    0.0000    0.0000 C   0  0  0  0  0  0  0  0  0  0  0  0
   -3.5517    1.4712    0.0000 C   0  0  0  0  0  0  0  0  0  0  0  0
   -4.9376    2.0452    0.0000 C   0  0  0  0  0  0  0  0  0  0  0  0
   -2.7184    2.7184    0.0000 C   0  0  0  0  0  0  0  0  0  0  0  0
   -3.7790    3.7790    0.0000 O   0  0  0  0  0  0  0  0  0  0  0  0
   -1.4712    3.5517    0.0000 C   0  0  0  0  0  0  0  0  0  0  0  0
    0.0000    3.8444    0.0000 C   0  0  0  0  0  0  0  0  0  0  0  0
    1.4712    3.5517    0.0000 C   0  0  0  0  0  0  0  0  0  0  0  0
    2.0452    4.9376    0.0000 C   0  0  0  0  0  0  0  0  0  0  0  0
    2.7184    2.7184    0.0000 C   0  0  0  0  0  0  0  0  0  0  0  0
    3.5517    1.4712    0.0000 C   0  0  0  0  0  0  0  0  0  0  0  0
    4.9376    2.0452    0.0000 C   0  0  0  0  0  0  0  0  0  0  0  0
    6.1276    1.1321    0.0000 O   0  0  0  0  0  0  0  0  0  0  0  0
    7.5134    1.7061    0.0000 C   0  0  0  0  0  0  0  0  0  0  0  0
    8.7034    0.7929    0.0000 O   0  0  0  0  0  0  0  0  0  0  0  0
   10.0893    1.3670    0.0000 C   0  0  0  0  0  0  0  0  0  0  0  0
   11.2793    0.4538    0.0000 C   0  0  0  0  0  0  0  0  0  0  0  0
   10.2850    2.8541    0.0000 C   0  0  0  0  0  0  0  0  0  0  0  0
   11.6709    3.4282    0.0000 O   0  0  0  0  0  0  0  0  0  0  0  0
    9.0950    3.7673    0.0000 C   0  0  0  0  0  0  0  0  0  0  0  0
    9.2908    5.2544    0.0000 O   0  0  0  0  0  0  0  0  0  0  0  0
    8.1008    6.1676    0.0000 C   0  0  0  0  0  0  0  0  0  0  0  0
    7.7092    3.1933    0.0000 C   0  0  0  0  0  0  0  0  0  0  0  0
    6.5192    4.1064    0.0000 O   0  0  0  0  0  0  0  0  0  0  0  0
    6.7150    5.5936    0.0000 C   0  0  0  0  0  0  0  0  0  0  0  0
  1  2  1  0
  3  2  1  1
  3  4  1  0
  4  5  1  0
  5  6  2  0
  5  7  1  0
  7  8  1  0
  8  9  1  1
  8 10  1  0
 10 11  1  6
 10 12  1  0
 12 13  1  1
 14 13  1  6
 14 15  1  0
 15 16  1  0
 16 17  1  6
 16 18  1  0
 18 19  1  1
 18 20  1  0
 20 21  1  6
 21 22  1  0
 21 23  1  0
 20 24  1  0
 24 25  1  1
 12 26  1  0
 26 27  1  1
 27 28  1  0
 28 29  1  0
 29 30  1  0
 30 31  2  0
 30 32  1  0
 26 33  1  0
 33 34  1  0
 34 35  1  1
 34 36  1  0
 36 37  2  0
 36 38  1  0
 38 39  2  0
 39 40  1  0
 40 41  1  0
 40 42  2  0
 42 43  1  0
 43 44  1  6
 44 45  1  0
 46 45  1  1
 46 47  1  0
 47 48  1  0
 48 49  1  1
 48 50  1  0
 50 51  1  6
 50 52  1  0
 52 53  1  6
 53 54  1  0
 52 55  1  0
 55 56  1  6
 56 57  1  0
 43  3  1  0
 55 46  1  0
 24 14  1  0
M  CHG  2  30   1  32  -1
M  END
>  <ChEMBL_IDs>  (339) 
CHEMBL416087

>  <target_organism>  (339) 
Rattus norvegicus

>  <target_molecule_pref_name>  (339) 
nan

>  <# Known Targets>  (339) 
nan

>  <Known Targets>  (339) 
nan

>  <smiles>  (339) 
CC[C@H]1OC(=O)C[C@@H](O)[C@H](C)[C@@H](O[C@@H]2O[C@H](C)[C@@H](O)[C@H](N(C)C)[C@H]2O)[C@@H](CCO[N+](=O)[O-])C[C@@H](C)C(=O)/C=C/C(C)=C/[C@@H]1CO[C@@H]1O[C@H](C)[C@@H](O)[C@@H](OC)[C@H]1OC

$$$$

     RDKit          2D

 56 58  0  0  0  0  0  0  0  0999 V2000
    6.0944   -1.2990    0.0000 C   0  0  0  0  0  0  0  0  0  0  0  0
    5.3444    0.0000    0.0000 C   0  0  0  0  0  0  0  0  0  0  0  0
    3.8444    0.0000    0.0000 C   0  0  0  0  0  0  0  0  0  0  0  0
    3.5517   -1.4712    0.0000 O   0  0  0  0  0  0  0  0  0  0  0  0
    2.7184   -2.7184    0.0000 C   0  0  0  0  0  0  0  0  0  0  0  0
    3.7790   -3.7790    0.0000 O   0  0  0  0  0  0  0  0  0  0  0  0
    1.4712   -3.5517    0.0000 C   0  0  0  0  0  0  0  0  0  0  0  0
   -0.0000   -3.8444    0.0000 C   0  0  0  0  0  0  0  0  0  0  0  0
   -0.0000   -5.3444    0.0000 O   0  0  0  0  0  0  0  0  0  0  0  0
   -1.4712   -3.5517    0.0000 C   0  0  0  0  0  0  0  0  0  0  0  0
   -1.6507   -4.7534    0.0000 C   0  0  0  0  0  0  0  0  0  0  0  0
   -2.7184   -2.7184    0.0000 C   0  0  0  0  0  0  0  0  0  0  0  0
   -3.7790   -3.7790    0.0000 O   0  0  0  0  0  0  0  0  0  0  0  0
   -3.3908   -5.2279    0.0000 C   0  0  0  0  0  0  0  0  0  0  0  0
   -1.9419   -5.6162    0.0000 O   0  0  0  0  0  0  0  0  0  0  0  0
   -1.5537   -7.0650    0.0000 C   0  0  0  0  0  0  0  0  0  0  0  0
   -0.1048   -7.4533    0.0000 C   0  0  0  0  0  0  0  0  0  0  0  0
   -2.6144   -8.1257    0.0000 C   0  0  0  0  0  0  0  0  0  0  0  0
   -2.2261   -9.5746    0.0000 O   0  0  0  0  0  0  0  0  0  0  0  0
   -4.0632   -7.7375    0.0000 C   0  0  0  0  0  0  0  0  0  0  0  0
   -5.1239   -8.7981    0.0000 N   0  0  0  0  0  0  0  0  0  0  0  0
   -6.5728   -8.4099    0.0000 C   0  0  0  0  0  0  0  0  0  0  0  0
   -4.7357  -10.2470    0.0000 C   0  0  0  0  0  0  0  0  0  0  0  0
   -4.4515   -6.2886    0.0000 C   0  0  0  0  0  0  0  0  0  0  0  0
   -5.9004   -5.9004    0.0000 O   0  0  0  0  0  0  0  0  0  0  0  0
   -3.5517   -1.4712    0.0000 C   0  0  0  0  0  0  0  0  0  0  0  0
   -4.9376   -2.0452    0.0000 C   0  0  0  0  0  0  0  0  0  0  0  0
   -6.1276   -1.1321    0.0000 C   0  0  0  0  0  0  0  0  0  0  0  0
   -7.5134   -1.7061    0.0000 N   0  0  0  0  0  0  0  0  0  0  0  0
   -8.7034   -0.7929    0.0000 N   0  0  0  0  0  0  0  0  0  0  0  0
   -9.8935    0.1202    0.0000 N   0  0  0  0  0  0  0  0  0  0  0  0
   -3.8444    0.0000    0.0000 C   0  0  0  0  0  0  0  0  0  0  0  0
   -3.5517    1.4712    0.0000 C   0  0  0  0  0  0  0  0  0  0  0  0
   -4.9376    2.0452    0.0000 C   0  0  0  0  0  0  0  0  0  0  0  0
   -2.7184    2.7184    0.0000 C   0  0  0  0  0  0  0  0  0  0  0  0
   -3.7790    3.7790    0.0000 O   0  0  0  0  0  0  0  0  0  0  0  0
   -1.4712    3.5517    0.0000 C   0  0  0  0  0  0  0  0  0  0  0  0
    0.0000    3.8444    0.0000 C   0  0  0  0  0  0  0  0  0  0  0  0
    1.4712    3.5517    0.0000 C   0  0  0  0  0  0  0  0  0  0  0  0
    2.0452    4.9376    0.0000 C   0  0  0  0  0  0  0  0  0  0  0  0
    2.7184    2.7184    0.0000 C   0  0  0  0  0  0  0  0  0  0  0  0
    3.5517    1.4712    0.0000 C   0  0  0  0  0  0  0  0  0  0  0  0
    4.9376    2.0452    0.0000 C   0  0  0  0  0  0  0  0  0  0  0  0
    6.1276    1.1321    0.0000 O   0  0  0  0  0  0  0  0  0  0  0  0
    7.5134    1.7061    0.0000 C   0  0  0  0  0  0  0  0  0  0  0  0
    8.7034    0.7929    0.0000 O   0  0  0  0  0  0  0  0  0  0  0  0
   10.0893    1.3670    0.0000 C   0  0  0  0  0  0  0  0  0  0  0  0
   11.2793    0.4538    0.0000 C   0  0  0  0  0  0  0  0  0  0  0  0
   10.2850    2.8541    0.0000 C   0  0  0  0  0  0  0  0  0  0  0  0
   11.6709    3.4282    0.0000 O   0  0  0  0  0  0  0  0  0  0  0  0
    9.0950    3.7673    0.0000 C   0  0  0  0  0  0  0  0  0  0  0  0
    9.2908    5.2544    0.0000 O   0  0  0  0  0  0  0  0  0  0  0  0
    8.1008    6.1676    0.0000 C   0  0  0  0  0  0  0  0  0  0  0  0
    7.7092    3.1933    0.0000 C   0  0  0  0  0  0  0  0  0  0  0  0
    6.5192    4.1064    0.0000 O   0  0  0  0  0  0  0  0  0  0  0  0
    6.7150    5.5936    0.0000 C   0  0  0  0  0  0  0  0  0  0  0  0
  1  2  1  0
  3  2  1  1
  3  4  1  0
  4  5  1  0
  5  6  2  0
  5  7  1  0
  7  8  1  0
  8  9  1  1
  8 10  1  0
 10 11  1  6
 10 12  1  0
 12 13  1  1
 14 13  1  6
 14 15  1  0
 15 16  1  0
 16 17  1  6
 16 18  1  0
 18 19  1  1
 18 20  1  0
 20 21  1  6
 21 22  1  0
 21 23  1  0
 20 24  1  0
 24 25  1  1
 12 26  1  0
 26 27  1  1
 27 28  1  0
 28 29  1  0
 29 30  2  3
 30 31  2  0
 26 32  1  0
 32 33  1  0
 33 34  1  1
 33 35  1  0
 35 36  2  0
 35 37  1  0
 37 38  2  0
 38 39  1  0
 39 40  1  0
 39 41  2  0
 41 42  1  0
 42 43  1  6
 43 44  1  0
 45 44  1  1
 45 46  1  0
 46 47  1  0
 47 48  1  1
 47 49  1  0
 49 50  1  6
 49 51  1  0
 51 52  1  6
 52 53  1  0
 51 54  1  0
 54 55  1  6
 55 56  1  0
 42  3  1  0
 54 45  1  0
 24 14  1  0
M  CHG  2  30   1  31  -1
M  END
>  <ChEMBL_IDs>  (340) 
CHEMBL44093

>  <target_organism>  (340) 
Rattus norvegicus

>  <target_molecule_pref_name>  (340) 
nan

>  <# Known Targets>  (340) 
nan

>  <Known Targets>  (340) 
nan

>  <smiles>  (340) 
CC[C@H]1OC(=O)C[C@@H](O)[C@H](C)[C@@H](O[C@@H]2O[C@H](C)[C@@H](O)[C@H](N(C)C)[C@H]2O)[C@@H](CCN=[N+]=[N-])C[C@@H](C)C(=O)/C=C/C(C)=C/[C@@H]1CO[C@@H]1O[C@H](C)[C@@H](O)[C@@H](OC)[C@H]1OC

$$$$

     RDKit          2D

 53 55  0  0  0  0  0  0  0  0999 V2000
    6.0944   -1.2990    0.0000 C   0  0  0  0  0  0  0  0  0  0  0  0
    5.3444    0.0000    0.0000 C   0  0  0  0  0  0  0  0  0  0  0  0
    3.8444    0.0000    0.0000 C   0  0  0  0  0  0  0  0  0  0  0  0
    3.5517   -1.4712    0.0000 C   0  0  0  0  0  0  0  0  0  0  0  0
    2.7184   -2.7184    0.0000 C   0  0  0  0  0  0  0  0  0  0  0  0
    3.7790   -3.7790    0.0000 C   0  0  0  0  0  0  0  0  0  0  0  0
    1.4712   -3.5517    0.0000 C   0  0  0  0  0  0  0  0  0  0  0  0
    2.0452   -4.9376    0.0000 O   0  0  0  0  0  0  0  0  0  0  0  0
   -0.0000   -3.8444    0.0000 C   0  0  0  0  0  0  0  0  0  0  0  0
   -1.4712   -3.5517    0.0000 C   0  0  0  0  0  0  0  0  0  0  0  0
   -2.7184   -2.7184    0.0000 C   0  0  0  0  0  0  0  0  0  0  0  0
   -3.7790   -3.7790    0.0000 C   0  0  0  0  0  0  0  0  0  0  0  0
   -3.5517   -1.4712    0.0000 C   0  0  0  0  0  0  0  0  0  0  0  0
   -3.8444    0.0000    0.0000 C   0  0  0  0  0  0  0  0  0  0  0  0
   -5.3444    0.0000    0.0000 C   0  0  0  0  0  0  0  0  0  0  0  0
   -6.0944    1.2990    0.0000 O   0  0  0  0  0  0  0  0  0  0  0  0
   -7.5944    1.2990    0.0000 C   0  0  0  0  0  0  0  0  0  0  0  0
   -8.3444    2.5981    0.0000 O   0  0  0  0  0  0  0  0  0  0  0  0
   -9.8444    2.5981    0.0000 C   0  0  0  0  0  0  0  0  0  0  0  0
  -10.5944    3.8971    0.0000 C   0  0  0  0  0  0  0  0  0  0  0  0
  -10.5944    1.2990    0.0000 C   0  0  0  0  0  0  0  0  0  0  0  0
  -12.0944    1.2990    0.0000 O   0  0  0  0  0  0  0  0  0  0  0  0
   -9.8444    0.0000    0.0000 C   0  0  0  0  0  0  0  0  0  0  0  0
  -10.5944   -1.2990    0.0000 O   0  0  0  0  0  0  0  0  0  0  0  0
   -9.8444   -2.5981    0.0000 C   0  0  0  0  0  0  0  0  0  0  0  0
   -8.3444    0.0000    0.0000 C   0  0  0  0  0  0  0  0  0  0  0  0
   -7.5944   -1.2990    0.0000 O   0  0  0  0  0  0  0  0  0  0  0  0
   -8.3444   -2.5981    0.0000 C   0  0  0  0  0  0  0  0  0  0  0  0
   -3.5517    1.4712    0.0000 C   0  0  0  0  0  0  0  0  0  0  0  0
   -4.9376    2.0452    0.0000 C   0  0  0  0  0  0  0  0  0  0  0  0
   -5.1333    3.5324    0.0000 C   0  0  0  0  0  0  0  0  0  0  0  0
   -2.7184    2.7184    0.0000 O   0  0  0  0  0  0  0  0  0  0  0  0
   -1.4712    3.5517    0.0000 C   0  0  0  0  0  0  0  0  0  0  0  0
   -2.0452    4.9376    0.0000 O   0  0  0  0  0  0  0  0  0  0  0  0
    0.0000    3.8444    0.0000 C   0  0  0  0  0  0  0  0  0  0  0  0
    1.4712    3.5517    0.0000 C   0  0  0  0  0  0  0  0  0  0  0  0
    2.0452    4.9376    0.0000 O   0  0  0  0  0  0  0  0  0  0  0  0
    2.7184    2.7184    0.0000 C   0  0  0  0  0  0  0  0  0  0  0  0
    3.3441    3.7599    0.0000 C   0  0  0  0  0  0  0  0  0  0  0  0
    3.5517    1.4712    0.0000 C   0  0  0  0  0  0  0  0  0  0  0  0
    4.9376    2.0452    0.0000 O   0  0  0  0  0  0  0  0  0  0  0  0
    5.1333    3.5324    0.0000 C   0  0  0  0  0  0  0  0  0  0  0  0
    3.9433    4.4455    0.0000 O   0  0  0  0  0  0  0  0  0  0  0  0
    4.1391    5.9327    0.0000 C   0  0  0  0  0  0  0  0  0  0  0  0
    2.9491    6.8458    0.0000 C   0  0  0  0  0  0  0  0  0  0  0  0
    5.5249    6.5067    0.0000 C   0  0  0  0  0  0  0  0  0  0  0  0
    5.7207    7.9939    0.0000 O   0  0  0  0  0  0  0  0  0  0  0  0
    6.7150    5.5936    0.0000 C   0  0  0  0  0  0  0  0  0  0  0  0
    8.1008    6.1676    0.0000 N   0  0  0  0  0  0  0  0  0  0  0  0
    9.2908    5.2544    0.0000 C   0  0  0  0  0  0  0  0  0  0  0  0
    8.2966    7.6548    0.0000 C   0  0  0  0  0  0  0  0  0  0  0  0
    6.5192    4.1064    0.0000 C   0  0  0  0  0  0  0  0  0  0  0  0
    7.7092    3.1933    0.0000 O   0  0  0  0  0  0  0  0  0  0  0  0
  1  2  1  0
  3  2  1  1
  3  4  1  0
  4  5  1  0
  5  6  1  1
  5  7  1  0
  7  8  2  0
  7  9  1  0
  9 10  2  0
 10 11  1  0
 11 12  1  0
 11 13  2  0
 13 14  1  0
 14 15  1  6
 15 16  1  0
 17 16  1  1
 17 18  1  0
 18 19  1  0
 19 20  1  1
 19 21  1  0
 21 22  1  6
 21 23  1  0
 23 24  1  6
 24 25  1  0
 23 26  1  0
 26 27  1  6
 27 28  1  0
 14 29  1  0
 29 30  1  1
 30 31  1  0
 29 32  1  0
 32 33  1  0
 33 34  2  0
 33 35  1  0
 35 36  1  0
 36 37  1  1
 36 38  1  0
 38 39  1  6
 38 40  1  0
 40 41  1  1
 42 41  1  6
 42 43  1  0
 43 44  1  0
 44 45  1  6
 44 46  1  0
 46 47  1  1
 46 48  1  0
 48 49  1  6
 49 50  1  0
 49 51  1  0
 48 52  1  0
 52 53  1  1
 40  3  1  0
 52 42  1  0
 26 17  1  0
M  END
>  <ChEMBL_IDs>  (341) 
CHEMBL44473

>  <target_organism>  (341) 
Rattus norvegicus

>  <target_molecule_pref_name>  (341) 
nan

>  <# Known Targets>  (341) 
nan

>  <Known Targets>  (341) 
nan

>  <smiles>  (341) 
CC[C@H]1C[C@@H](C)C(=O)/C=C/C(C)=C/[C@H](CO[C@@H]2O[C@H](C)[C@@H](O)[C@@H](OC)[C@H]2OC)[C@@H](CC)OC(=O)C[C@@H](O)[C@H](C)[C@H]1O[C@@H]1O[C@H](C)[C@@H](O)[C@H](N(C)C)[C@H]1O

$$$$

     RDKit          2D

 53 55  0  0  0  0  0  0  0  0999 V2000
   11.2575   -6.8632    0.0000 C   0  0  0  0  0  0  0  0  0  0  0  0
    9.9060   -6.2123    0.0000 C   0  0  0  0  0  0  0  0  0  0  0  0
    8.5546   -5.5615    0.0000 C   0  0  0  0  0  0  0  0  0  0  0  0
    7.3152   -6.4065    0.0000 N   0  0  0  0  0  0  0  0  0  0  0  0
    7.4273   -7.9023    0.0000 C   0  0  0  0  0  0  0  0  0  0  0  0
    5.9638   -5.7557    0.0000 C   0  0  0  0  0  0  0  0  0  0  0  0
    4.7244   -6.6006    0.0000 C   0  0  0  0  0  0  0  0  0  0  0  0
    3.3730   -5.9498    0.0000 C   0  0  0  0  0  0  0  0  0  0  0  0
    2.1336   -6.7948    0.0000 C   0  0  0  0  0  0  0  0  0  0  0  0
    3.2609   -4.4540    0.0000 O   0  0  0  0  0  0  0  0  0  0  0  0
    4.5002   -3.6090    0.0000 C   0  0  0  0  0  0  0  0  0  0  0  0
    4.3881   -2.1132    0.0000 O   0  0  0  0  0  0  0  0  0  0  0  0
    3.0367   -1.4624    0.0000 C   0  0  0  0  0  0  0  0  0  0  0  0
    3.3705    0.0000    0.0000 C   0  0  0  0  0  0  0  0  0  0  0  0
    4.8705    0.0000    0.0000 C   0  0  0  0  0  0  0  0  0  0  0  0
    3.0367    1.4624    0.0000 C   0  0  0  0  0  0  0  0  0  0  0  0
    4.3881    2.1132    0.0000 O   0  0  0  0  0  0  0  0  0  0  0  0
    4.5002    3.6090    0.0000 C   0  0  0  0  0  0  0  0  0  0  0  0
    5.8517    4.2598    0.0000 C   0  0  0  0  0  0  0  0  0  0  0  0
    5.9638    5.7557    0.0000 C   0  0  0  0  0  0  0  0  0  0  0  0
    6.5807    7.1229    0.0000 C   0  0  0  0  0  0  0  0  0  0  0  0
    7.4174    5.3855    0.0000 O   0  0  0  0  0  0  0  0  0  0  0  0
    7.8237    3.9416    0.0000 C   0  0  0  0  0  0  0  0  0  0  0  0
    4.7244    6.6006    0.0000 C   0  0  0  0  0  0  0  0  0  0  0  0
    4.8365    8.0964    0.0000 O   0  0  0  0  0  0  0  0  0  0  0  0
    3.3730    5.9498    0.0000 C   0  0  0  0  0  0  0  0  0  0  0  0
    2.1336    6.7948    0.0000 C   0  0  0  0  0  0  0  0  0  0  0  0
    3.2609    4.4540    0.0000 O   0  0  0  0  0  0  0  0  0  0  0  0
    2.1015    2.6351    0.0000 C   0  0  0  0  0  0  0  0  0  0  0  0
    2.6628    3.8629    0.0000 C   0  0  0  0  0  0  0  0  0  0  0  0
    0.7500    3.2860    0.0000 C   0  0  0  0  0  0  0  0  0  0  0  0
    1.0838    4.7484    0.0000 O   0  0  0  0  0  0  0  0  0  0  0  0
   -0.7500    3.2860    0.0000 O   0  0  0  0  0  0  0  0  0  0  0  0
   -2.1015    2.6351    0.0000 C   0  0  0  0  0  0  0  0  0  0  0  0
   -3.0367    3.8079    0.0000 C   0  0  0  0  0  0  0  0  0  0  0  0
   -2.4887    5.2042    0.0000 C   0  0  0  0  0  0  0  0  0  0  0  0
   -3.0367    1.4624    0.0000 C   0  0  0  0  0  0  0  0  0  0  0  0
   -4.5199    1.2388    0.0000 C   0  0  0  0  0  0  0  0  0  0  0  0
   -3.7867    2.7614    0.0000 O   0  0  0  0  0  0  0  0  0  0  0  0
   -3.3705    0.0000    0.0000 C   0  0  0  0  0  0  0  0  0  0  0  0
   -4.8705    0.0000    0.0000 O   0  0  0  0  0  0  0  0  0  0  0  0
   -3.0367   -1.4624    0.0000 C   0  0  0  0  0  0  0  0  0  0  0  0
   -4.3881   -2.1132    0.0000 C   0  0  0  0  0  0  0  0  0  0  0  0
   -2.1015   -2.6351    0.0000 C   0  0  0  0  0  0  0  0  0  0  0  0
   -3.0367   -3.8079    0.0000 O   0  0  0  0  0  0  0  0  0  0  0  0
   -0.7500   -3.2860    0.0000 C   0  0  0  0  0  0  0  0  0  0  0  0
   -1.0838   -4.7484    0.0000 C   0  0  0  0  0  0  0  0  0  0  0  0
    0.7500   -3.2860    0.0000 C   0  0  0  0  0  0  0  0  0  0  0  0
    2.1015   -2.6351    0.0000 C   0  0  0  0  0  0  0  0  0  0  0  0
    3.5348   -3.0773    0.0000 C   0  0  0  0  0  0  0  0  0  0  0  0
    2.2135   -4.1309    0.0000 O   0  0  0  0  0  0  0  0  0  0  0  0
    5.8517   -4.2598    0.0000 C   0  0  0  0  0  0  0  0  0  0  0  0
    7.0910   -3.4149    0.0000 O   0  0  0  0  0  0  0  0  0  0  0  0
  1  2  3  0
  2  3  1  0
  3  4  1  0
  4  5  1  0
  4  6  1  0
  6  7  1  0
  7  8  1  0
  8  9  1  0
  8 10  1  0
 10 11  1  0
 11 12  1  0
 12 13  1  0
 13 14  1  0
 14 15  1  0
 14 16  1  0
 16 17  1  0
 17 18  1  0
 18 19  1  0
 19 20  1  0
 20 21  1  0
 20 22  1  0
 22 23  1  0
 20 24  1  0
 24 25  1  0
 24 26  1  0
 26 27  1  0
 26 28  1  0
 16 29  1  0
 29 30  1  0
 29 31  1  0
 31 32  2  0
 31 33  1  0
 33 34  1  0
 34 35  1  0
 35 36  1  0
 34 37  1  0
 37 38  1  0
 37 39  1  0
 37 40  1  0
 40 41  1  0
 40 42  1  0
 42 43  1  0
 42 44  1  0
 44 45  2  0
 44 46  1  0
 46 47  1  0
 46 48  1  0
 48 49  1  0
 49 50  1  0
 49 51  1  0
 11 52  1  0
 52 53  1  0
 52  6  1  0
 49 13  1  0
 28 18  1  0
M  END
>  <ChEMBL_IDs>  (342) 
nan

>  <target_organism>  (342) 
nan

>  <target_molecule_pref_name>  (342) 
nan

>  <# Known Targets>  (342) 
nan

>  <Known Targets>  (342) 
nan

>  <smiles>  (342) 
C#CCN(C)C1CC(C)OC(OC2C(C)C(OC3CC(C)(OC)C(O)C(C)O3)C(C)C(=O)OC(CC)C(C)(O)C(O)C(C)C(=O)C(C)CC2(C)O)C1O

$$$$

     RDKit          2D

 54 56  0  0  0  0  0  0  0  0999 V2000
    6.0944   -1.2990    0.0000 C   0  0  0  0  0  0  0  0  0  0  0  0
    5.3444    0.0000    0.0000 C   0  0  0  0  0  0  0  0  0  0  0  0
    3.8444    0.0000    0.0000 C   0  0  0  0  0  0  0  0  0  0  0  0
    3.5517   -1.4712    0.0000 O   0  0  0  0  0  0  0  0  0  0  0  0
    2.7184   -2.7184    0.0000 C   0  0  0  0  0  0  0  0  0  0  0  0
    3.7790   -3.7790    0.0000 O   0  0  0  0  0  0  0  0  0  0  0  0
    1.4712   -3.5517    0.0000 C   0  0  0  0  0  0  0  0  0  0  0  0
   -0.0000   -3.8444    0.0000 C   0  0  0  0  0  0  0  0  0  0  0  0
   -0.0000   -5.3444    0.0000 O   0  0  0  0  0  0  0  0  0  0  0  0
   -1.4712   -3.5517    0.0000 C   0  0  0  0  0  0  0  0  0  0  0  0
   -1.6507   -4.7534    0.0000 C   0  0  0  0  0  0  0  0  0  0  0  0
   -2.7184   -2.7184    0.0000 C   0  0  0  0  0  0  0  0  0  0  0  0
   -3.7790   -3.7790    0.0000 O   0  0  0  0  0  0  0  0  0  0  0  0
   -3.3908   -5.2279    0.0000 C   0  0  0  0  0  0  0  0  0  0  0  0
   -1.9419   -5.6162    0.0000 O   0  0  0  0  0  0  0  0  0  0  0  0
   -1.5537   -7.0650    0.0000 C   0  0  0  0  0  0  0  0  0  0  0  0
   -0.1048   -7.4533    0.0000 C   0  0  0  0  0  0  0  0  0  0  0  0
   -2.6144   -8.1257    0.0000 C   0  0  0  0  0  0  0  0  0  0  0  0
   -2.2261   -9.5746    0.0000 O   0  0  0  0  0  0  0  0  0  0  0  0
   -4.0632   -7.7375    0.0000 C   0  0  0  0  0  0  0  0  0  0  0  0
   -5.1239   -8.7981    0.0000 N   0  0  0  0  0  0  0  0  0  0  0  0
   -6.5728   -8.4099    0.0000 C   0  0  0  0  0  0  0  0  0  0  0  0
   -4.7357  -10.2470    0.0000 C   0  0  0  0  0  0  0  0  0  0  0  0
   -4.4515   -6.2886    0.0000 C   0  0  0  0  0  0  0  0  0  0  0  0
   -5.9004   -5.9004    0.0000 O   0  0  0  0  0  0  0  0  0  0  0  0
   -3.5517   -1.4712    0.0000 C   0  0  0  0  0  0  0  0  0  0  0  0
   -4.9376   -2.0452    0.0000 C   0  0  0  0  0  0  0  0  0  0  0  0
   -6.1276   -1.1321    0.0000 C   0  0  0  0  0  0  0  0  0  0  0  0
   -7.5134   -1.7061    0.0000 O   0  0  0  0  0  0  0  0  0  0  0  0
   -3.8444    0.0000    0.0000 C   0  0  0  0  0  0  0  0  0  0  0  0
   -3.5517    1.4712    0.0000 C   0  0  0  0  0  0  0  0  0  0  0  0
   -4.9376    2.0452    0.0000 C   0  0  0  0  0  0  0  0  0  0  0  0
   -2.7184    2.7184    0.0000 C   0  0  0  0  0  0  0  0  0  0  0  0
   -3.7790    3.7790    0.0000 O   0  0  0  0  0  0  0  0  0  0  0  0
   -1.4712    3.5517    0.0000 C   0  0  0  0  0  0  0  0  0  0  0  0
    0.0000    3.8444    0.0000 C   0  0  0  0  0  0  0  0  0  0  0  0
    1.4712    3.5517    0.0000 C   0  0  0  0  0  0  0  0  0  0  0  0
    2.0452    4.9376    0.0000 C   0  0  0  0  0  0  0  0  0  0  0  0
    2.7184    2.7184    0.0000 C   0  0  0  0  0  0  0  0  0  0  0  0
    3.5517    1.4712    0.0000 C   0  0  0  0  0  0  0  0  0  0  0  0
    4.9376    2.0452    0.0000 C   0  0  0  0  0  0  0  0  0  0  0  0
    6.1276    1.1321    0.0000 O   0  0  0  0  0  0  0  0  0  0  0  0
    7.5134    1.7061    0.0000 C   0  0  0  0  0  0  0  0  0  0  0  0
    8.7034    0.7929    0.0000 O   0  0  0  0  0  0  0  0  0  0  0  0
   10.0893    1.3670    0.0000 C   0  0  0  0  0  0  0  0  0  0  0  0
   11.2793    0.4538    0.0000 C   0  0  0  0  0  0  0  0  0  0  0  0
   10.2850    2.8541    0.0000 C   0  0  0  0  0  0  0  0  0  0  0  0
   11.6709    3.4282    0.0000 O   0  0  0  0  0  0  0  0  0  0  0  0
    9.0950    3.7673    0.0000 C   0  0  0  0  0  0  0  0  0  0  0  0
    9.2908    5.2544    0.0000 O   0  0  0  0  0  0  0  0  0  0  0  0
    8.1008    6.1676    0.0000 C   0  0  0  0  0  0  0  0  0  0  0  0
    7.7092    3.1933    0.0000 C   0  0  0  0  0  0  0  0  0  0  0  0
    6.5192    4.1064    0.0000 O   0  0  0  0  0  0  0  0  0  0  0  0
    6.7150    5.5936    0.0000 C   0  0  0  0  0  0  0  0  0  0  0  0
  1  2  1  0
  3  2  1  1
  3  4  1  0
  4  5  1  0
  5  6  2  0
  5  7  1  0
  7  8  1  0
  8  9  1  1
  8 10  1  0
 10 11  1  6
 10 12  1  0
 12 13  1  1
 14 13  1  6
 14 15  1  0
 15 16  1  0
 16 17  1  6
 16 18  1  0
 18 19  1  1
 18 20  1  0
 20 21  1  6
 21 22  1  0
 21 23  1  0
 20 24  1  0
 24 25  1  1
 12 26  1  0
 26 27  1  1
 27 28  1  0
 28 29  1  0
 26 30  1  0
 30 31  1  0
 31 32  1  1
 31 33  1  0
 33 34  2  0
 33 35  1  0
 35 36  2  0
 36 37  1  0
 37 38  1  0
 37 39  2  0
 39 40  1  0
 40 41  1  6
 41 42  1  0
 43 42  1  1
 43 44  1  0
 44 45  1  0
 45 46  1  1
 45 47  1  0
 47 48  1  6
 47 49  1  0
 49 50  1  6
 50 51  1  0
 49 52  1  0
 52 53  1  6
 53 54  1  0
 40  3  1  0
 52 43  1  0
 24 14  1  0
M  END
>  <ChEMBL_IDs>  (343) 
CHEMBL288885

>  <target_organism>  (343) 
None

>  <target_molecule_pref_name>  (343) 
nan

>  <# Known Targets>  (343) 
nan

>  <Known Targets>  (343) 
nan

>  <smiles>  (343) 
CC[C@H]1OC(=O)C[C@@H](O)[C@H](C)[C@@H](O[C@@H]2O[C@H](C)[C@@H](O)[C@H](N(C)C)[C@H]2O)[C@@H](CCO)C[C@@H](C)C(=O)/C=C/C(C)=C/[C@@H]1CO[C@@H]1O[C@H](C)[C@@H](O)[C@@H](OC)[C@H]1OC

$$$$

     RDKit          2D

 54 56  0  0  0  0  0  0  0  0999 V2000
   18.4042   -4.8111    0.0000 C   0  0  0  0  0  0  0  0  0  0  0  0
   17.0184   -4.2371    0.0000 C   0  0  0  0  0  0  0  0  0  0  0  0
   16.8226   -2.7499    0.0000 C   0  0  0  0  0  0  0  0  0  0  0  0
   15.4367   -2.1759    0.0000 C   0  0  0  0  0  0  0  0  0  0  0  0
   14.2467   -3.0890    0.0000 O   0  0  0  0  0  0  0  0  0  0  0  0
   15.2410   -0.6887    0.0000 O   0  0  0  0  0  0  0  0  0  0  0  0
   13.8551   -0.1147    0.0000 C   0  0  0  0  0  0  0  0  0  0  0  0
   12.6651   -1.0279    0.0000 C   0  0  0  0  0  0  0  0  0  0  0  0
   12.8609   -2.5150    0.0000 C   0  0  0  0  0  0  0  0  0  0  0  0
   11.2793   -0.4538    0.0000 O   0  0  0  0  0  0  0  0  0  0  0  0
   11.0835    1.0333    0.0000 C   0  0  0  0  0  0  0  0  0  0  0  0
    9.6977    1.6074    0.0000 O   0  0  0  0  0  0  0  0  0  0  0  0
    8.5076    0.6942    0.0000 C   0  0  0  0  0  0  0  0  0  0  0  0
    7.1218    1.2682    0.0000 C   0  0  0  0  0  0  0  0  0  0  0  0
    6.9260    2.7554    0.0000 C   0  0  0  0  0  0  0  0  0  0  0  0
    5.9318    0.3551    0.0000 O   0  0  0  0  0  0  0  0  0  0  0  0
    6.1276   -1.1321    0.0000 C   0  0  0  0  0  0  0  0  0  0  0  0
    4.9376   -2.0452    0.0000 O   0  0  0  0  0  0  0  0  0  0  0  0
    3.5517   -1.4712    0.0000 C   0  0  0  0  0  0  0  0  0  0  0  0
    2.7184   -2.7184    0.0000 C   0  0  0  0  0  0  0  0  0  0  0  0
    3.7790   -3.7790    0.0000 O   0  0  0  0  0  0  0  0  0  0  0  0
    5.2279   -3.3908    0.0000 C   0  0  0  0  0  0  0  0  0  0  0  0
    1.4712   -3.5517    0.0000 C   0  0  0  0  0  0  0  0  0  0  0  0
    2.0452   -4.9376    0.0000 O   0  0  0  0  0  0  0  0  0  0  0  0
    0.0000   -3.8444    0.0000 C   0  0  0  0  0  0  0  0  0  0  0  0
   -1.4712   -3.5517    0.0000 C   0  0  0  0  0  0  0  0  0  0  0  0
   -2.0452   -4.9376    0.0000 O   0  0  0  0  0  0  0  0  0  0  0  0
   -2.7184   -2.7184    0.0000 O   0  0  0  0  0  0  0  0  0  0  0  0
   -3.5517   -1.4712    0.0000 C   0  0  0  0  0  0  0  0  0  0  0  0
   -4.9376   -2.0452    0.0000 C   0  0  0  0  0  0  0  0  0  0  0  0
   -3.8444   -0.0000    0.0000 C   0  0  0  0  0  0  0  0  0  0  0  0
   -3.5517    1.4712    0.0000 C   0  0  0  0  0  0  0  0  0  0  0  0
   -2.7184    2.7184    0.0000 C   0  0  0  0  0  0  0  0  0  0  0  0
   -1.4712    3.5517    0.0000 C   0  0  0  0  0  0  0  0  0  0  0  0
   -0.0000    3.8444    0.0000 C   0  0  0  0  0  0  0  0  0  0  0  0
    1.4712    3.5517    0.0000 C   0  0  0  0  0  0  0  0  0  0  0  0
    2.0452    4.9376    0.0000 O   0  0  0  0  0  0  0  0  0  0  0  0
    2.7184    2.7184    0.0000 C   0  0  0  0  0  0  0  0  0  0  0  0
    3.7790    3.7790    0.0000 C   0  0  0  0  0  0  0  0  0  0  0  0
    3.5517    1.4712    0.0000 C   0  0  0  0  0  0  0  0  0  0  0  0
    3.8444   -0.0000    0.0000 C   0  0  0  0  0  0  0  0  0  0  0  0
    5.3444   -0.0000    0.0000 C   0  0  0  0  0  0  0  0  0  0  0  0
    6.0944    1.2990    0.0000 C   0  0  0  0  0  0  0  0  0  0  0  0
    7.5498    1.6620    0.0000 N   0  0  0  0  0  0  0  0  0  0  0  0
    7.5134   -1.7061    0.0000 C   0  0  0  0  0  0  0  0  0  0  0  0
    7.7092   -3.1933    0.0000 O   0  0  0  0  0  0  0  0  0  0  0  0
    8.7034   -0.7929    0.0000 C   0  0  0  0  0  0  0  0  0  0  0  0
   10.0893   -1.3670    0.0000 N   0  0  0  0  0  0  0  0  0  0  0  0
   10.2850   -2.8541    0.0000 C   0  0  0  0  0  0  0  0  0  0  0  0
   11.4649   -0.7689    0.0000 C   0  0  0  0  0  0  0  0  0  0  0  0
   12.2735    1.9465    0.0000 C   0  0  0  0  0  0  0  0  0  0  0  0
   13.6593    1.3725    0.0000 C   0  0  0  0  0  0  0  0  0  0  0  0
   13.9840    2.8369    0.0000 C   0  0  0  0  0  0  0  0  0  0  0  0
   15.1579    1.3070    0.0000 O   0  0  0  0  0  0  0  0  0  0  0  0
  1  2  1  0
  2  3  1  0
  3  4  1  0
  4  5  2  0
  4  6  1  0
  6  7  1  0
  7  8  1  0
  8  9  1  0
  8 10  1  0
 10 11  1  0
 11 12  1  0
 12 13  1  0
 13 14  1  0
 14 15  1  0
 14 16  1  0
 16 17  1  0
 17 18  1  0
 19 18  1  6
 19 20  1  0
 20 21  1  1
 21 22  1  0
 20 23  1  0
 23 24  1  6
 23 25  1  0
 25 26  1  0
 26 27  2  0
 26 28  1  0
 28 29  1  0
 29 30  1  6
 29 31  1  0
 31 32  1  0
 32 33  2  0
 33 34  1  0
 34 35  2  0
 35 36  1  0
 36 37  1  6
 36 38  1  0
 38 39  1  6
 38 40  1  0
 40 41  1  0
 41 42  1  6
 42 43  1  0
 43 44  1  0
 17 45  1  0
 45 46  1  0
 45 47  1  0
 47 48  1  0
 48 49  1  0
 48 50  1  0
 11 51  1  0
 51 52  1  0
 52 53  1  0
 52 54  1  0
 52  7  1  0
 47 13  1  0
 41 19  1  0
M  END
>  <ChEMBL_IDs>  (344) 
CHEMBL92913

>  <target_organism>  (344) 
None

>  <target_molecule_pref_name>  (344) 
nan

>  <# Known Targets>  (344) 
nan

>  <Known Targets>  (344) 
nan

>  <smiles>  (344) 
CCCC(=O)OC1C(C)OC(OC2C(C)OC(O[C@@H]3[C@@H](OC)[C@H](O)CC(=O)O[C@H](C)C/C=C/C=C/[C@H](O)[C@H](C)C[C@@H]3CCN)C(O)C2N(C)C)CC1(C)O

$$$$

     RDKit          2D

 54 56  0  0  0  0  0  0  0  0999 V2000
    6.0944   -1.2990    0.0000 C   0  0  0  0  0  0  0  0  0  0  0  0
    5.3444    0.0000    0.0000 C   0  0  0  0  0  0  0  0  0  0  0  0
    3.8444    0.0000    0.0000 C   0  0  0  0  0  0  0  0  0  0  0  0
    3.5517   -1.4712    0.0000 O   0  0  0  0  0  0  0  0  0  0  0  0
    2.7184   -2.7184    0.0000 C   0  0  0  0  0  0  0  0  0  0  0  0
    3.7790   -3.7790    0.0000 O   0  0  0  0  0  0  0  0  0  0  0  0
    1.4712   -3.5517    0.0000 C   0  0  0  0  0  0  0  0  0  0  0  0
   -0.0000   -3.8444    0.0000 C   0  0  0  0  0  0  0  0  0  0  0  0
   -0.0000   -5.3444    0.0000 O   0  0  0  0  0  0  0  0  0  0  0  0
   -1.4712   -3.5517    0.0000 C   0  0  0  0  0  0  0  0  0  0  0  0
   -1.6507   -4.7534    0.0000 C   0  0  0  0  0  0  0  0  0  0  0  0
   -2.7184   -2.7184    0.0000 C   0  0  0  0  0  0  0  0  0  0  0  0
   -3.7790   -3.7790    0.0000 O   0  0  0  0  0  0  0  0  0  0  0  0
   -3.3908   -5.2279    0.0000 C   0  0  0  0  0  0  0  0  0  0  0  0
   -1.9419   -5.6162    0.0000 O   0  0  0  0  0  0  0  0  0  0  0  0
   -1.5537   -7.0650    0.0000 C   0  0  0  0  0  0  0  0  0  0  0  0
   -0.1048   -7.4533    0.0000 C   0  0  0  0  0  0  0  0  0  0  0  0
   -2.6144   -8.1257    0.0000 C   0  0  0  0  0  0  0  0  0  0  0  0
   -2.2261   -9.5746    0.0000 O   0  0  0  0  0  0  0  0  0  0  0  0
   -4.0632   -7.7375    0.0000 C   0  0  0  0  0  0  0  0  0  0  0  0
   -5.1239   -8.7981    0.0000 N   0  0  0  0  0  0  0  0  0  0  0  0
   -6.5728   -8.4099    0.0000 C   0  0  0  0  0  0  0  0  0  0  0  0
   -4.7357  -10.2470    0.0000 C   0  0  0  0  0  0  0  0  0  0  0  0
   -4.4515   -6.2886    0.0000 C   0  0  0  0  0  0  0  0  0  0  0  0
   -5.9004   -5.9004    0.0000 O   0  0  0  0  0  0  0  0  0  0  0  0
   -3.5517   -1.4712    0.0000 C   0  0  0  0  0  0  0  0  0  0  0  0
   -4.9376   -2.0452    0.0000 C   0  0  0  0  0  0  0  0  0  0  0  0
   -6.1276   -1.1321    0.0000 C   0  0  0  0  0  0  0  0  0  0  0  0
   -7.5134   -1.7061    0.0000 N   0  0  0  0  0  0  0  0  0  0  0  0
   -3.8444    0.0000    0.0000 C   0  0  0  0  0  0  0  0  0  0  0  0
   -3.5517    1.4712    0.0000 C   0  0  0  0  0  0  0  0  0  0  0  0
   -4.9376    2.0452    0.0000 C   0  0  0  0  0  0  0  0  0  0  0  0
   -2.7184    2.7184    0.0000 C   0  0  0  0  0  0  0  0  0  0  0  0
   -3.7790    3.7790    0.0000 O   0  0  0  0  0  0  0  0  0  0  0  0
   -1.4712    3.5517    0.0000 C   0  0  0  0  0  0  0  0  0  0  0  0
    0.0000    3.8444    0.0000 C   0  0  0  0  0  0  0  0  0  0  0  0
    1.4712    3.5517    0.0000 C   0  0  0  0  0  0  0  0  0  0  0  0
    2.0452    4.9376    0.0000 C   0  0  0  0  0  0  0  0  0  0  0  0
    2.7184    2.7184    0.0000 C   0  0  0  0  0  0  0  0  0  0  0  0
    3.5517    1.4712    0.0000 C   0  0  0  0  0  0  0  0  0  0  0  0
    4.9376    2.0452    0.0000 C   0  0  0  0  0  0  0  0  0  0  0  0
    6.1276    1.1321    0.0000 O   0  0  0  0  0  0  0  0  0  0  0  0
    7.5134    1.7061    0.0000 C   0  0  0  0  0  0  0  0  0  0  0  0
    8.7034    0.7929    0.0000 O   0  0  0  0  0  0  0  0  0  0  0  0
   10.0893    1.3670    0.0000 C   0  0  0  0  0  0  0  0  0  0  0  0
   11.2793    0.4538    0.0000 C   0  0  0  0  0  0  0  0  0  0  0  0
   10.2850    2.8541    0.0000 C   0  0  0  0  0  0  0  0  0  0  0  0
   11.6709    3.4282    0.0000 O   0  0  0  0  0  0  0  0  0  0  0  0
    9.0950    3.7673    0.0000 C   0  0  0  0  0  0  0  0  0  0  0  0
    9.2908    5.2544    0.0000 O   0  0  0  0  0  0  0  0  0  0  0  0
    8.1008    6.1676    0.0000 C   0  0  0  0  0  0  0  0  0  0  0  0
    7.7092    3.1933    0.0000 C   0  0  0  0  0  0  0  0  0  0  0  0
    6.5192    4.1064    0.0000 O   0  0  0  0  0  0  0  0  0  0  0  0
    6.7150    5.5936    0.0000 C   0  0  0  0  0  0  0  0  0  0  0  0
  1  2  1  0
  3  2  1  1
  3  4  1  0
  4  5  1  0
  5  6  2  0
  5  7  1  0
  7  8  1  0
  8  9  1  1
  8 10  1  0
 10 11  1  6
 10 12  1  0
 12 13  1  1
 14 13  1  6
 14 15  1  0
 15 16  1  0
 16 17  1  6
 16 18  1  0
 18 19  1  1
 18 20  1  0
 20 21  1  6
 21 22  1  0
 21 23  1  0
 20 24  1  0
 24 25  1  1
 12 26  1  0
 26 27  1  1
 27 28  1  0
 28 29  1  0
 26 30  1  0
 30 31  1  0
 31 32  1  1
 31 33  1  0
 33 34  2  0
 33 35  1  0
 35 36  2  0
 36 37  1  0
 37 38  1  0
 37 39  2  0
 39 40  1  0
 40 41  1  6
 41 42  1  0
 43 42  1  1
 43 44  1  0
 44 45  1  0
 45 46  1  1
 45 47  1  0
 47 48  1  6
 47 49  1  0
 49 50  1  6
 50 51  1  0
 49 52  1  0
 52 53  1  6
 53 54  1  0
 40  3  1  0
 52 43  1  0
 24 14  1  0
M  END
>  <ChEMBL_IDs>  (345) 
CHEMBL43923

>  <target_organism>  (345) 
Rattus norvegicus

>  <target_molecule_pref_name>  (345) 
nan

>  <# Known Targets>  (345) 
nan

>  <Known Targets>  (345) 
nan

>  <smiles>  (345) 
CC[C@H]1OC(=O)C[C@@H](O)[C@H](C)[C@@H](O[C@@H]2O[C@H](C)[C@@H](O)[C@H](N(C)C)[C@H]2O)[C@@H](CCN)C[C@@H](C)C(=O)/C=C/C(C)=C/[C@@H]1CO[C@@H]1O[C@H](C)[C@@H](O)[C@@H](OC)[C@H]1OC

$$$$

     RDKit          2D

 54 56  0  0  0  0  0  0  0  0999 V2000
    5.6205   -1.2990    0.0000 C   0  0  0  0  0  0  0  0  0  0  0  0
    4.8705    0.0000    0.0000 C   0  0  0  0  0  0  0  0  0  0  0  0
    3.3705    0.0000    0.0000 C   0  0  0  0  0  0  0  0  0  0  0  0
    3.0367   -1.4624    0.0000 O   0  0  0  0  0  0  0  0  0  0  0  0
    2.1015   -2.6351    0.0000 C   0  0  0  0  0  0  0  0  0  0  0  0
    3.0367   -3.8079    0.0000 O   0  0  0  0  0  0  0  0  0  0  0  0
    0.7500   -3.2860    0.0000 C   0  0  0  0  0  0  0  0  0  0  0  0
    1.3600   -4.4903    0.0000 C   0  0  0  0  0  0  0  0  0  0  0  0
   -0.7500   -3.2860    0.0000 C   0  0  0  0  0  0  0  0  0  0  0  0
   -1.0838   -4.7484    0.0000 O   0  0  0  0  0  0  0  0  0  0  0  0
    0.0158   -5.7686    0.0000 C   0  0  0  0  0  0  0  0  0  0  0  0
   -0.3180   -7.2310    0.0000 C   0  0  0  0  0  0  0  0  0  0  0  0
    0.7816   -8.2513    0.0000 C   0  0  0  0  0  0  0  0  0  0  0  0
    1.4659   -9.5861    0.0000 C   0  0  0  0  0  0  0  0  0  0  0  0
   -0.4141   -9.1570    0.0000 O   0  0  0  0  0  0  0  0  0  0  0  0
   -0.2276  -10.6453    0.0000 C   0  0  0  0  0  0  0  0  0  0  0  0
    2.2150   -7.8091    0.0000 C   0  0  0  0  0  0  0  0  0  0  0  0
    3.3145   -8.8294    0.0000 O   0  0  0  0  0  0  0  0  0  0  0  0
    2.5487   -6.3467    0.0000 C   0  0  0  0  0  0  0  0  0  0  0  0
    3.9821   -5.9046    0.0000 C   0  0  0  0  0  0  0  0  0  0  0  0
    1.4492   -5.3265    0.0000 O   0  0  0  0  0  0  0  0  0  0  0  0
   -2.1015   -2.6351    0.0000 C   0  0  0  0  0  0  0  0  0  0  0  0
   -3.0367   -3.8079    0.0000 C   0  0  0  0  0  0  0  0  0  0  0  0
   -3.0367   -1.4624    0.0000 C   0  0  0  0  0  0  0  0  0  0  0  0
   -4.3881   -2.1132    0.0000 O   0  0  0  0  0  0  0  0  0  0  0  0
   -5.6275   -1.2682    0.0000 C   0  0  0  0  0  0  0  0  0  0  0  0
   -5.5154    0.2276    0.0000 O   0  0  0  0  0  0  0  0  0  0  0  0
   -6.7548    1.0725    0.0000 C   0  0  0  0  0  0  0  0  0  0  0  0
   -6.6427    2.5684    0.0000 C   0  0  0  0  0  0  0  0  0  0  0  0
   -8.1062    0.4217    0.0000 C   0  0  0  0  0  0  0  0  0  0  0  0
   -8.2183   -1.0741    0.0000 C   0  0  0  0  0  0  0  0  0  0  0  0
   -9.5698   -1.7249    0.0000 N   0  0  0  0  0  0  0  0  0  0  0  0
  -10.8091   -0.8799    0.0000 C   0  0  0  0  0  0  0  0  0  0  0  0
   -9.6819   -3.2207    0.0000 C   0  0  0  0  0  0  0  0  0  0  0  0
   -6.9790   -1.9191    0.0000 C   0  0  0  0  0  0  0  0  0  0  0  0
   -7.0910   -3.4149    0.0000 O   0  0  0  0  0  0  0  0  0  0  0  0
   -3.3705    0.0000    0.0000 C   0  0  0  0  0  0  0  0  0  0  0  0
   -4.6098   -0.8450    0.0000 C   0  0  0  0  0  0  0  0  0  0  0  0
   -4.6098    0.8450    0.0000 O   0  0  0  0  0  0  0  0  0  0  0  0
   -5.9613    0.1942    0.0000 C   0  0  0  0  0  0  0  0  0  0  0  0
   -7.2006    1.0391    0.0000 C   0  0  0  0  0  0  0  0  0  0  0  0
   -8.4400    1.8841    0.0000 N   0  0  0  0  0  0  0  0  0  0  0  0
   -3.0367    1.4624    0.0000 C   0  0  0  0  0  0  0  0  0  0  0  0
   -2.1015    2.6351    0.0000 C   0  0  0  0  0  0  0  0  0  0  0  0
   -3.0367    3.8079    0.0000 C   0  0  0  0  0  0  0  0  0  0  0  0
   -0.7500    3.2860    0.0000 C   0  0  0  0  0  0  0  0  0  0  0  0
   -1.0838    4.7484    0.0000 O   0  0  0  0  0  0  0  0  0  0  0  0
    0.7500    3.2860    0.0000 C   0  0  0  0  0  0  0  0  0  0  0  0
    1.0838    4.7484    0.0000 C   0  0  0  0  0  0  0  0  0  0  0  0
    2.1015    2.6351    0.0000 C   0  0  0  0  0  0  0  0  0  0  0  0
    3.0367    3.8079    0.0000 O   0  0  0  0  0  0  0  0  0  0  0  0
    3.0367    1.4624    0.0000 C   0  0  0  0  0  0  0  0  0  0  0  0
    3.7867    2.7614    0.0000 C   0  0  0  0  0  0  0  0  0  0  0  0
    4.5199    1.2388    0.0000 O   0  0  0  0  0  0  0  0  0  0  0  0
  1  2  1  0
  3  2  1  1
  3  4  1  0
  4  5  1  0
  5  6  2  0
  5  7  1  0
  7  8  1  6
  7  9  1  0
  9 10  1  1
 11 10  1  6
 11 12  1  0
 12 13  1  0
 13 14  1  1
 13 15  1  0
 15 16  1  0
 13 17  1  0
 17 18  1  6
 17 19  1  0
 19 20  1  1
 19 21  1  0
  9 22  1  0
 22 23  1  6
 22 24  1  0
 24 25  1  1
 26 25  1  1
 26 27  1  0
 27 28  1  0
 28 29  1  1
 28 30  1  0
 30 31  1  0
 31 32  1  1
 32 33  1  0
 32 34  1  0
 31 35  1  0
 35 36  1  6
 24 37  1  0
 37 38  1  6
 37 39  1  0
 39 40  1  0
 40 41  1  0
 41 42  3  0
 37 43  1  0
 43 44  1  0
 44 45  1  1
 44 46  1  0
 46 47  2  0
 46 48  1  0
 48 49  1  6
 48 50  1  0
 50 51  1  1
 50 52  1  0
 52 53  1  1
 52 54  1  0
 52  3  1  0
 21 11  1  0
 35 26  1  0
M  END
>  <ChEMBL_IDs>  (346) 
CHEMBL433724

>  <target_organism>  (346) 
Rattus norvegicus

>  <target_molecule_pref_name>  (346) 
nan

>  <# Known Targets>  (346) 
nan

>  <Known Targets>  (346) 
nan

>  <smiles>  (346) 
CC[C@H]1OC(=O)[C@H](C)[C@@H](O[C@H]2C[C@@](C)(OC)[C@@H](O)[C@H](C)O2)[C@H](C)[C@@H](O[C@@H]2O[C@H](C)C[C@H](N(C)C)[C@H]2O)[C@@](C)(OCC#N)C[C@@H](C)C(=O)[C@H](C)[C@@H](O)[C@]1(C)O

$$$$

     RDKit          2D

 53 55  0  0  0  0  0  0  0  0999 V2000
    6.0944   -1.2990    0.0000 C   0  0  0  0  0  0  0  0  0  0  0  0
    5.3444    0.0000    0.0000 C   0  0  0  0  0  0  0  0  0  0  0  0
    3.8444    0.0000    0.0000 C   0  0  0  0  0  0  0  0  0  0  0  0
    3.5517   -1.4712    0.0000 O   0  0  0  0  0  0  0  0  0  0  0  0
    2.7184   -2.7184    0.0000 C   0  0  0  0  0  0  0  0  0  0  0  0
    3.7790   -3.7790    0.0000 O   0  0  0  0  0  0  0  0  0  0  0  0
    1.4712   -3.5517    0.0000 C   0  0  0  0  0  0  0  0  0  0  0  0
   -0.0000   -3.8444    0.0000 C   0  0  0  0  0  0  0  0  0  0  0  0
   -0.0000   -5.3444    0.0000 O   0  0  0  0  0  0  0  0  0  0  0  0
   -1.4712   -3.5517    0.0000 C   0  0  0  0  0  0  0  0  0  0  0  0
   -1.6507   -4.7534    0.0000 C   0  0  0  0  0  0  0  0  0  0  0  0
   -2.7184   -2.7184    0.0000 C   0  0  0  0  0  0  0  0  0  0  0  0
   -3.7790   -3.7790    0.0000 O   0  0  0  0  0  0  0  0  0  0  0  0
   -3.3908   -5.2279    0.0000 C   0  0  0  0  0  0  0  0  0  0  0  0
   -1.9419   -5.6162    0.0000 O   0  0  0  0  0  0  0  0  0  0  0  0
   -1.5537   -7.0650    0.0000 C   0  0  0  0  0  0  0  0  0  0  0  0
   -0.1048   -7.4533    0.0000 C   0  0  0  0  0  0  0  0  0  0  0  0
   -2.6144   -8.1257    0.0000 C   0  0  0  0  0  0  0  0  0  0  0  0
   -4.0632   -7.7375    0.0000 C   0  0  0  0  0  0  0  0  0  0  0  0
   -5.1239   -8.7981    0.0000 N   0  0  0  0  0  0  0  0  0  0  0  0
   -4.7357  -10.2470    0.0000 C   0  0  0  0  0  0  0  0  0  0  0  0
   -6.5728   -8.4099    0.0000 C   0  0  0  0  0  0  0  0  0  0  0  0
   -4.4515   -6.2886    0.0000 C   0  0  0  0  0  0  0  0  0  0  0  0
   -5.9004   -5.9004    0.0000 O   0  0  0  0  0  0  0  0  0  0  0  0
   -3.5517   -1.4712    0.0000 C   0  0  0  0  0  0  0  0  0  0  0  0
   -4.9376   -2.0452    0.0000 C   0  0  0  0  0  0  0  0  0  0  0  0
   -6.1276   -1.1321    0.0000 C   0  0  0  0  0  0  0  0  0  0  0  0
   -7.5134   -1.7061    0.0000 O   0  0  0  0  0  0  0  0  0  0  0  0
   -3.8444    0.0000    0.0000 C   0  0  0  0  0  0  0  0  0  0  0  0
   -3.5517    1.4712    0.0000 C   0  0  0  0  0  0  0  0  0  0  0  0
   -4.9376    2.0452    0.0000 C   0  0  0  0  0  0  0  0  0  0  0  0
   -2.7184    2.7184    0.0000 C   0  0  0  0  0  0  0  0  0  0  0  0
   -3.7790    3.7790    0.0000 O   0  0  0  0  0  0  0  0  0  0  0  0
   -1.4712    3.5517    0.0000 C   0  0  0  0  0  0  0  0  0  0  0  0
    0.0000    3.8444    0.0000 C   0  0  0  0  0  0  0  0  0  0  0  0
    1.4712    3.5517    0.0000 C   0  0  0  0  0  0  0  0  0  0  0  0
    2.0452    4.9376    0.0000 C   0  0  0  0  0  0  0  0  0  0  0  0
    2.7184    2.7184    0.0000 C   0  0  0  0  0  0  0  0  0  0  0  0
    3.5517    1.4712    0.0000 C   0  0  0  0  0  0  0  0  0  0  0  0
    4.9376    2.0452    0.0000 C   0  0  0  0  0  0  0  0  0  0  0  0
    6.1276    1.1321    0.0000 O   0  0  0  0  0  0  0  0  0  0  0  0
    7.5134    1.7061    0.0000 C   0  0  0  0  0  0  0  0  0  0  0  0
    8.7034    0.7929    0.0000 O   0  0  0  0  0  0  0  0  0  0  0  0
   10.0893    1.3670    0.0000 C   0  0  0  0  0  0  0  0  0  0  0  0
   11.2793    0.4538    0.0000 C   0  0  0  0  0  0  0  0  0  0  0  0
   10.2850    2.8541    0.0000 C   0  0  0  0  0  0  0  0  0  0  0  0
   11.6709    3.4282    0.0000 O   0  0  0  0  0  0  0  0  0  0  0  0
    9.0950    3.7673    0.0000 C   0  0  0  0  0  0  0  0  0  0  0  0
    9.2908    5.2544    0.0000 O   0  0  0  0  0  0  0  0  0  0  0  0
    8.1008    6.1676    0.0000 C   0  0  0  0  0  0  0  0  0  0  0  0
    7.7092    3.1933    0.0000 C   0  0  0  0  0  0  0  0  0  0  0  0
    6.5192    4.1064    0.0000 O   0  0  0  0  0  0  0  0  0  0  0  0
    6.7150    5.5936    0.0000 C   0  0  0  0  0  0  0  0  0  0  0  0
  1  2  1  0
  2  3  1  0
  3  4  1  0
  4  5  1  0
  5  6  2  0
  5  7  1  0
  7  8  1  0
  8  9  1  0
  8 10  1  0
 10 11  1  0
 10 12  1  0
 12 13  1  0
 13 14  1  0
 14 15  1  0
 15 16  1  0
 16 17  1  0
 16 18  1  0
 18 19  1  0
 19 20  1  0
 20 21  1  0
 20 22  1  0
 19 23  1  0
 23 24  1  0
 12 25  1  0
 25 26  1  0
 26 27  1  0
 27 28  1  0
 25 29  1  0
 29 30  1  0
 30 31  1  0
 30 32  1  0
 32 33  2  0
 32 34  1  0
 34 35  2  0
 35 36  1  0
 36 37  1  0
 36 38  1  0
 38 39  1  0
 39 40  1  0
 40 41  1  0
 41 42  1  0
 42 43  1  0
 43 44  1  0
 44 45  1  0
 44 46  1  0
 46 47  1  0
 46 48  1  0
 48 49  1  0
 49 50  1  0
 48 51  1  0
 51 52  1  0
 52 53  1  0
 39  3  1  0
 51 42  1  0
 23 14  1  0
M  END
>  <ChEMBL_IDs>  (347) 
nan

>  <target_organism>  (347) 
nan

>  <target_molecule_pref_name>  (347) 
nan

>  <# Known Targets>  (347) 
nan

>  <Known Targets>  (347) 
nan

>  <smiles>  (347) 
CCC1OC(=O)CC(O)C(C)C(OC2OC(C)CC(N(C)C)C2O)C(CCO)CC(C)C(=O)/C=C\C(C)CC1COC1OC(C)C(O)C(OC)C1OC

$$$$

     RDKit          2D

 54 56  0  0  0  0  0  0  0  0999 V2000
    5.6205   -1.2990    0.0000 C   0  0  0  0  0  0  0  0  0  0  0  0
    4.8705    0.0000    0.0000 C   0  0  0  0  0  0  0  0  0  0  0  0
    3.3705    0.0000    0.0000 C   0  0  0  0  0  0  0  0  0  0  0  0
    3.0367   -1.4624    0.0000 O   0  0  0  0  0  0  0  0  0  0  0  0
    2.1015   -2.6351    0.0000 C   0  0  0  0  0  0  0  0  0  0  0  0
    3.0367   -3.8079    0.0000 O   0  0  0  0  0  0  0  0  0  0  0  0
    0.7500   -3.2860    0.0000 C   0  0  0  0  0  0  0  0  0  0  0  0
    1.3600   -4.4903    0.0000 C   0  0  0  0  0  0  0  0  0  0  0  0
   -0.7500   -3.2860    0.0000 C   0  0  0  0  0  0  0  0  0  0  0  0
   -1.0838   -4.7484    0.0000 O   0  0  0  0  0  0  0  0  0  0  0  0
    0.0158   -5.7686    0.0000 C   0  0  0  0  0  0  0  0  0  0  0  0
   -0.3180   -7.2310    0.0000 C   0  0  0  0  0  0  0  0  0  0  0  0
    0.7816   -8.2513    0.0000 C   0  0  0  0  0  0  0  0  0  0  0  0
    1.4659   -9.5861    0.0000 C   0  0  0  0  0  0  0  0  0  0  0  0
   -0.4141   -9.1570    0.0000 O   0  0  0  0  0  0  0  0  0  0  0  0
   -0.2276  -10.6453    0.0000 C   0  0  0  0  0  0  0  0  0  0  0  0
    2.2150   -7.8091    0.0000 C   0  0  0  0  0  0  0  0  0  0  0  0
    3.3145   -8.8294    0.0000 O   0  0  0  0  0  0  0  0  0  0  0  0
    2.5487   -6.3467    0.0000 C   0  0  0  0  0  0  0  0  0  0  0  0
    3.9821   -5.9046    0.0000 C   0  0  0  0  0  0  0  0  0  0  0  0
    1.4492   -5.3265    0.0000 O   0  0  0  0  0  0  0  0  0  0  0  0
   -2.1015   -2.6351    0.0000 C   0  0  0  0  0  0  0  0  0  0  0  0
   -3.0367   -3.8079    0.0000 C   0  0  0  0  0  0  0  0  0  0  0  0
   -3.0367   -1.4624    0.0000 C   0  0  0  0  0  0  0  0  0  0  0  0
   -4.3881   -2.1132    0.0000 O   0  0  0  0  0  0  0  0  0  0  0  0
   -5.6275   -1.2682    0.0000 C   0  0  0  0  0  0  0  0  0  0  0  0
   -5.5154    0.2276    0.0000 O   0  0  0  0  0  0  0  0  0  0  0  0
   -6.7548    1.0725    0.0000 C   0  0  0  0  0  0  0  0  0  0  0  0
   -6.6427    2.5684    0.0000 C   0  0  0  0  0  0  0  0  0  0  0  0
   -8.1062    0.4217    0.0000 C   0  0  0  0  0  0  0  0  0  0  0  0
   -8.2183   -1.0741    0.0000 C   0  0  0  0  0  0  0  0  0  0  0  0
   -9.5698   -1.7249    0.0000 N   0  0  0  0  0  0  0  0  0  0  0  0
  -10.8091   -0.8799    0.0000 C   0  0  0  0  0  0  0  0  0  0  0  0
   -9.7838   -2.7973    0.0000 C   0  0  0  0  0  0  0  0  0  0  0  0
   -6.9790   -1.9191    0.0000 C   0  0  0  0  0  0  0  0  0  0  0  0
   -7.0910   -3.4149    0.0000 O   0  0  0  0  0  0  0  0  0  0  0  0
   -8.4425   -4.0657    0.0000 C   0  0  0  0  0  0  0  0  0  0  0  0
   -8.5546   -5.5615    0.0000 C   0  0  0  0  0  0  0  0  0  0  0  0
   -9.4143   -3.5644    0.0000 O   0  0  0  0  0  0  0  0  0  0  0  0
   -3.3705    0.0000    0.0000 C   0  0  0  0  0  0  0  0  0  0  0  0
   -4.6098   -0.8450    0.0000 C   0  0  0  0  0  0  0  0  0  0  0  0
   -4.6098    0.8450    0.0000 O   0  0  0  0  0  0  0  0  0  0  0  0
   -3.0367    1.4624    0.0000 C   0  0  0  0  0  0  0  0  0  0  0  0
   -2.1015    2.6351    0.0000 C   0  0  0  0  0  0  0  0  0  0  0  0
   -3.0367    3.8079    0.0000 C   0  0  0  0  0  0  0  0  0  0  0  0
   -0.7500    3.2860    0.0000 C   0  0  0  0  0  0  0  0  0  0  0  0
   -1.0838    4.7484    0.0000 O   0  0  0  0  0  0  0  0  0  0  0  0
    0.7500    3.2860    0.0000 C   0  0  0  0  0  0  0  0  0  0  0  0
    1.0838    4.7484    0.0000 C   0  0  0  0  0  0  0  0  0  0  0  0
    2.1015    2.6351    0.0000 C   0  0  0  0  0  0  0  0  0  0  0  0
    3.0367    3.8079    0.0000 O   0  0  0  0  0  0  0  0  0  0  0  0
    3.0367    1.4624    0.0000 C   0  0  0  0  0  0  0  0  0  0  0  0
    3.7867    2.7614    0.0000 C   0  0  0  0  0  0  0  0  0  0  0  0
    4.5199    1.2388    0.0000 O   0  0  0  0  0  0  0  0  0  0  0  0
  1  2  1  0
  3  2  1  1
  3  4  1  0
  4  5  1  0
  5  6  2  0
  5  7  1  0
  7  8  1  6
  7  9  1  0
  9 10  1  1
 11 10  1  6
 11 12  1  0
 12 13  1  0
 13 14  1  1
 13 15  1  0
 15 16  1  0
 13 17  1  0
 17 18  1  6
 17 19  1  0
 19 20  1  1
 19 21  1  0
  9 22  1  0
 22 23  1  6
 22 24  1  0
 24 25  1  1
 26 25  1  1
 26 27  1  0
 27 28  1  0
 28 29  1  1
 28 30  1  0
 30 31  1  0
 31 32  1  1
 32 33  1  0
 32 34  1  0
 31 35  1  0
 35 36  1  6
 36 37  1  0
 37 38  1  0
 37 39  2  0
 24 40  1  0
 40 41  1  1
 40 42  1  0
 40 43  1  0
 43 44  1  0
 44 45  1  1
 44 46  1  0
 46 47  2  0
 46 48  1  0
 48 49  1  6
 48 50  1  0
 50 51  1  1
 50 52  1  0
 52 53  1  1
 52 54  1  0
 52  3  1  0
 21 11  1  0
 35 26  1  0
M  END
>  <ChEMBL_IDs>  (348) 
CHEMBL2110577

>  <target_organism>  (348) 
Plasmodium falciparum

>  <target_molecule_pref_name>  (348) 
nan

>  <# Known Targets>  (348) 
nan

>  <Known Targets>  (348) 
nan

>  <smiles>  (348) 
CC[C@H]1OC(=O)[C@H](C)[C@@H](O[C@H]2C[C@@](C)(OC)[C@@H](O)[C@H](C)O2)[C@H](C)[C@@H](O[C@@H]2O[C@H](C)C[C@H](N(C)C)[C@H]2OC(C)=O)[C@](C)(O)C[C@@H](C)C(=O)[C@H](C)[C@@H](O)[C@]1(C)O

$$$$

     RDKit          2D

 54 56  0  0  0  0  0  0  0  0999 V2000
    6.0944   -1.2990    0.0000 C   0  0  0  0  0  0  0  0  0  0  0  0
    5.3444    0.0000    0.0000 C   0  0  0  0  0  0  0  0  0  0  0  0
    3.8444    0.0000    0.0000 C   0  0  0  0  0  0  0  0  0  0  0  0
    3.5517   -1.4712    0.0000 O   0  0  0  0  0  0  0  0  0  0  0  0
    2.7184   -2.7184    0.0000 C   0  0  0  0  0  0  0  0  0  0  0  0
    3.7790   -3.7790    0.0000 O   0  0  0  0  0  0  0  0  0  0  0  0
    1.4712   -3.5517    0.0000 C   0  0  0  0  0  0  0  0  0  0  0  0
   -0.0000   -3.8444    0.0000 C   0  0  0  0  0  0  0  0  0  0  0  0
   -0.0000   -5.3444    0.0000 O   0  0  0  0  0  0  0  0  0  0  0  0
   -1.4712   -3.5517    0.0000 C   0  0  0  0  0  0  0  0  0  0  0  0
   -1.6507   -4.7534    0.0000 C   0  0  0  0  0  0  0  0  0  0  0  0
   -2.7184   -2.7184    0.0000 C   0  0  0  0  0  0  0  0  0  0  0  0
   -3.7790   -3.7790    0.0000 O   0  0  0  0  0  0  0  0  0  0  0  0
   -3.3908   -5.2279    0.0000 C   0  0  0  0  0  0  0  0  0  0  0  0
   -1.9419   -5.6162    0.0000 O   0  0  0  0  0  0  0  0  0  0  0  0
   -1.5537   -7.0650    0.0000 C   0  0  0  0  0  0  0  0  0  0  0  0
   -0.1048   -7.4533    0.0000 C   0  0  0  0  0  0  0  0  0  0  0  0
   -2.6144   -8.1257    0.0000 C   0  0  0  0  0  0  0  0  0  0  0  0
   -2.2261   -9.5746    0.0000 O   0  0  0  0  0  0  0  0  0  0  0  0
   -4.0632   -7.7375    0.0000 C   0  0  0  0  0  0  0  0  0  0  0  0
   -5.1239   -8.7981    0.0000 N   0  0  0  0  0  0  0  0  0  0  0  0
   -6.5728   -8.4099    0.0000 C   0  0  0  0  0  0  0  0  0  0  0  0
   -4.7357  -10.2470    0.0000 C   0  0  0  0  0  0  0  0  0  0  0  0
   -4.4515   -6.2886    0.0000 C   0  0  0  0  0  0  0  0  0  0  0  0
   -5.9004   -5.9004    0.0000 O   0  0  0  0  0  0  0  0  0  0  0  0
   -3.5517   -1.4712    0.0000 C   0  0  0  0  0  0  0  0  0  0  0  0
   -4.9376   -2.0452    0.0000 C   0  0  0  0  0  0  0  0  0  0  0  0
   -6.1276   -1.1321    0.0000 C   0  0  0  0  0  0  0  0  0  0  0  0
   -7.5134   -1.7061    0.0000 O   0  0  0  0  0  0  0  0  0  0  0  0
   -3.8444    0.0000    0.0000 C   0  0  0  0  0  0  0  0  0  0  0  0
   -3.5517    1.4712    0.0000 C   0  0  0  0  0  0  0  0  0  0  0  0
   -4.9376    2.0452    0.0000 C   0  0  0  0  0  0  0  0  0  0  0  0
   -2.7184    2.7184    0.0000 C   0  0  0  0  0  0  0  0  0  0  0  0
   -3.7790    3.7790    0.0000 O   0  0  0  0  0  0  0  0  0  0  0  0
   -1.4712    3.5517    0.0000 C   0  0  0  0  0  0  0  0  0  0  0  0
    0.0000    3.8444    0.0000 C   0  0  0  0  0  0  0  0  0  0  0  0
    1.4712    3.5517    0.0000 C   0  0  0  0  0  0  0  0  0  0  0  0
    2.0452    4.9376    0.0000 C   0  0  0  0  0  0  0  0  0  0  0  0
    2.7184    2.7184    0.0000 C   0  0  0  0  0  0  0  0  0  0  0  0
    3.5517    1.4712    0.0000 C   0  0  0  0  0  0  0  0  0  0  0  0
    4.9376    2.0452    0.0000 C   0  0  0  0  0  0  0  0  0  0  0  0
    6.1276    1.1321    0.0000 O   0  0  0  0  0  0  0  0  0  0  0  0
    7.5134    1.7061    0.0000 C   0  0  0  0  0  0  0  0  0  0  0  0
    8.7034    0.7929    0.0000 O   0  0  0  0  0  0  0  0  0  0  0  0
   10.0893    1.3670    0.0000 C   0  0  0  0  0  0  0  0  0  0  0  0
   11.2793    0.4538    0.0000 C   0  0  0  0  0  0  0  0  0  0  0  0
   10.2850    2.8541    0.0000 C   0  0  0  0  0  0  0  0  0  0  0  0
   11.6709    3.4282    0.0000 O   0  0  0  0  0  0  0  0  0  0  0  0
    9.0950    3.7673    0.0000 C   0  0  0  0  0  0  0  0  0  0  0  0
    9.2908    5.2544    0.0000 O   0  0  0  0  0  0  0  0  0  0  0  0
    8.1008    6.1676    0.0000 C   0  0  0  0  0  0  0  0  0  0  0  0
    7.7092    3.1933    0.0000 C   0  0  0  0  0  0  0  0  0  0  0  0
    6.5192    4.1064    0.0000 O   0  0  0  0  0  0  0  0  0  0  0  0
    6.7150    5.5936    0.0000 C   0  0  0  0  0  0  0  0  0  0  0  0
  1  2  1  0
  3  2  1  1
  3  4  1  0
  4  5  1  0
  5  6  2  0
  5  7  1  0
  7  8  1  0
  8  9  1  1
  8 10  1  0
 10 11  1  6
 10 12  1  0
 12 13  1  1
 13 14  1  0
 14 15  1  0
 15 16  1  0
 16 17  1  0
 16 18  1  0
 18 19  1  0
 18 20  1  0
 20 21  1  0
 21 22  1  0
 21 23  1  0
 20 24  1  0
 24 25  1  0
 12 26  1  0
 26 27  1  1
 27 28  1  0
 28 29  2  0
 26 30  1  0
 30 31  1  0
 31 32  1  1
 31 33  1  0
 33 34  2  0
 33 35  1  0
 35 36  1  0
 36 37  1  0
 37 38  1  0
 37 39  1  0
 39 40  1  0
 40 41  1  6
 41 42  1  0
 42 43  1  0
 43 44  1  0
 44 45  1  0
 45 46  1  0
 45 47  1  0
 47 48  1  0
 47 49  1  0
 49 50  1  0
 50 51  1  0
 49 52  1  0
 52 53  1  0
 53 54  1  0
 40  3  1  0
 52 43  1  0
 24 14  1  0
M  END
>  <ChEMBL_IDs>  (349) 
CHEMBL336088

>  <target_organism>  (349) 
Hepatitis C virus,None

>  <target_molecule_pref_name>  (349) 
nan

>  <# Known Targets>  (349) 
nan

>  <Known Targets>  (349) 
nan

>  <smiles>  (349) 
CC[C@H]1OC(=O)C[C@@H](O)[C@H](C)[C@@H](OC2OC(C)C(O)C(N(C)C)C2O)[C@@H](CC=O)C[C@@H](C)C(=O)CCC(C)C[C@@H]1COC1OC(C)C(O)C(OC)C1OC

$$$$

     RDKit          2D

 54 56  0  0  0  0  0  0  0  0999 V2000
    5.6205   -1.2990    0.0000 C   0  0  0  0  0  0  0  0  0  0  0  0
    4.8705    0.0000    0.0000 C   0  0  0  0  0  0  0  0  0  0  0  0
    3.3705    0.0000    0.0000 C   0  0  0  0  0  0  0  0  0  0  0  0
    3.0367   -1.4624    0.0000 O   0  0  0  0  0  0  0  0  0  0  0  0
    2.1015   -2.6351    0.0000 C   0  0  0  0  0  0  0  0  0  0  0  0
    3.0367   -3.8079    0.0000 O   0  0  0  0  0  0  0  0  0  0  0  0
    0.7500   -3.2860    0.0000 C   0  0  0  0  0  0  0  0  0  0  0  0
    1.3600   -4.4903    0.0000 C   0  0  0  0  0  0  0  0  0  0  0  0
   -0.7500   -3.2860    0.0000 C   0  0  0  0  0  0  0  0  0  0  0  0
   -1.0838   -4.7484    0.0000 O   0  0  0  0  0  0  0  0  0  0  0  0
    0.0158   -5.7686    0.0000 C   0  0  0  0  0  0  0  0  0  0  0  0
   -0.3180   -7.2310    0.0000 C   0  0  0  0  0  0  0  0  0  0  0  0
    0.7816   -8.2513    0.0000 C   0  0  0  0  0  0  0  0  0  0  0  0
    1.4659   -9.5861    0.0000 C   0  0  0  0  0  0  0  0  0  0  0  0
   -0.4141   -9.1570    0.0000 O   0  0  0  0  0  0  0  0  0  0  0  0
   -0.2276  -10.6453    0.0000 C   0  0  0  0  0  0  0  0  0  0  0  0
    2.2150   -7.8091    0.0000 C   0  0  0  0  0  0  0  0  0  0  0  0
    3.3145   -8.8294    0.0000 O   0  0  0  0  0  0  0  0  0  0  0  0
    2.5487   -6.3467    0.0000 C   0  0  0  0  0  0  0  0  0  0  0  0
    3.9821   -5.9046    0.0000 C   0  0  0  0  0  0  0  0  0  0  0  0
    1.4492   -5.3265    0.0000 O   0  0  0  0  0  0  0  0  0  0  0  0
   -2.1015   -2.6351    0.0000 C   0  0  0  0  0  0  0  0  0  0  0  0
   -3.0367   -3.8079    0.0000 C   0  0  0  0  0  0  0  0  0  0  0  0
   -3.0367   -1.4624    0.0000 C   0  0  0  0  0  0  0  0  0  0  0  0
   -4.3881   -2.1132    0.0000 O   0  0  0  0  0  0  0  0  0  0  0  0
   -5.6275   -1.2682    0.0000 C   0  0  0  0  0  0  0  0  0  0  0  0
   -5.5154    0.2276    0.0000 O   0  0  0  0  0  0  0  0  0  0  0  0
   -6.7548    1.0725    0.0000 C   0  0  0  0  0  0  0  0  0  0  0  0
   -6.6427    2.5684    0.0000 C   0  0  0  0  0  0  0  0  0  0  0  0
   -8.1062    0.4217    0.0000 C   0  0  0  0  0  0  0  0  0  0  0  0
   -8.2183   -1.0741    0.0000 C   0  0  0  0  0  0  0  0  0  0  0  0
   -9.5698   -1.7249    0.0000 N   0  0  0  0  0  0  0  0  0  0  0  0
  -10.8091   -0.8799    0.0000 C   0  0  0  0  0  0  0  0  0  0  0  0
   -9.6819   -3.2207    0.0000 C   0  0  0  0  0  0  0  0  0  0  0  0
   -6.9790   -1.9191    0.0000 C   0  0  0  0  0  0  0  0  0  0  0  0
   -7.0910   -3.4149    0.0000 O   0  0  0  0  0  0  0  0  0  0  0  0
   -3.3705    0.0000    0.0000 C   0  0  0  0  0  0  0  0  0  0  0  0
   -4.6098   -0.8450    0.0000 C   0  0  0  0  0  0  0  0  0  0  0  0
   -4.6098    0.8450    0.0000 O   0  0  0  0  0  0  0  0  0  0  0  0
   -5.9613    0.1942    0.0000 C   0  0  0  0  0  0  0  0  0  0  0  0
   -7.2006    1.0391    0.0000 C   0  0  0  0  0  0  0  0  0  0  0  0
   -8.6694    0.7347    0.0000 O   0  0  0  0  0  0  0  0  0  0  0  0
   -3.0367    1.4624    0.0000 C   0  0  0  0  0  0  0  0  0  0  0  0
   -2.1015    2.6351    0.0000 C   0  0  0  0  0  0  0  0  0  0  0  0
   -3.0367    3.8079    0.0000 C   0  0  0  0  0  0  0  0  0  0  0  0
   -0.7500    3.2860    0.0000 C   0  0  0  0  0  0  0  0  0  0  0  0
   -1.0838    4.7484    0.0000 O   0  0  0  0  0  0  0  0  0  0  0  0
    0.7500    3.2860    0.0000 C   0  0  0  0  0  0  0  0  0  0  0  0
    1.0838    4.7484    0.0000 C   0  0  0  0  0  0  0  0  0  0  0  0
    2.1015    2.6351    0.0000 C   0  0  0  0  0  0  0  0  0  0  0  0
    3.0367    3.8079    0.0000 O   0  0  0  0  0  0  0  0  0  0  0  0
    3.0367    1.4624    0.0000 C   0  0  0  0  0  0  0  0  0  0  0  0
    3.7867    2.7614    0.0000 C   0  0  0  0  0  0  0  0  0  0  0  0
    4.5199    1.2388    0.0000 O   0  0  0  0  0  0  0  0  0  0  0  0
  1  2  1  0
  3  2  1  1
  3  4  1  0
  4  5  1  0
  5  6  2  0
  5  7  1  0
  7  8  1  6
  7  9  1  0
  9 10  1  1
 11 10  1  6
 11 12  1  0
 12 13  1  0
 13 14  1  1
 13 15  1  0
 15 16  1  0
 13 17  1  0
 17 18  1  6
 17 19  1  0
 19 20  1  1
 19 21  1  0
  9 22  1  0
 22 23  1  6
 22 24  1  0
 24 25  1  1
 26 25  1  1
 26 27  1  0
 27 28  1  0
 28 29  1  1
 28 30  1  0
 30 31  1  0
 31 32  1  1
 32 33  1  0
 32 34  1  0
 31 35  1  0
 35 36  1  6
 24 37  1  0
 37 38  1  6
 37 39  1  0
 39 40  1  0
 40 41  1  0
 41 42  2  0
 37 43  1  0
 43 44  1  0
 44 45  1  1
 44 46  1  0
 46 47  2  0
 46 48  1  0
 48 49  1  6
 48 50  1  0
 50 51  1  1
 50 52  1  0
 52 53  1  1
 52 54  1  0
 52  3  1  0
 21 11  1  0
 35 26  1  0
M  END
>  <ChEMBL_IDs>  (350) 
CHEMBL352382

>  <target_organism>  (350) 
Hepatitis C virus,None

>  <target_molecule_pref_name>  (350) 
nan

>  <# Known Targets>  (350) 
nan

>  <Known Targets>  (350) 
nan

>  <smiles>  (350) 
CC[C@H]1OC(=O)[C@H](C)[C@@H](O[C@H]2C[C@@](C)(OC)[C@@H](O)[C@H](C)O2)[C@H](C)[C@@H](O[C@@H]2O[C@H](C)C[C@H](N(C)C)[C@H]2O)[C@@](C)(OCC=O)C[C@@H](C)C(=O)[C@H](C)[C@@H](O)[C@]1(C)O

$$$$

     RDKit          2D

 54 56  0  0  0  0  0  0  0  0999 V2000
   -1.9207   -4.8423    0.0000 C   0  0  0  0  0  0  0  0  0  0  0  0
   -0.6814   -3.9973    0.0000 C   0  0  0  0  0  0  0  0  0  0  0  0
    0.6701   -4.6482    0.0000 C   0  0  0  0  0  0  0  0  0  0  0  0
    0.5990   -6.1465    0.0000 O   0  0  0  0  0  0  0  0  0  0  0  0
    1.9094   -3.8032    0.0000 O   0  0  0  0  0  0  0  0  0  0  0  0
    3.2609   -4.4540    0.0000 C   0  0  0  0  0  0  0  0  0  0  0  0
    4.5002   -3.6090    0.0000 C   0  0  0  0  0  0  0  0  0  0  0  0
    4.3881   -2.1132    0.0000 O   0  0  0  0  0  0  0  0  0  0  0  0
    3.0367   -1.4624    0.0000 C   0  0  0  0  0  0  0  0  0  0  0  0
    3.3705    0.0000    0.0000 C   0  0  0  0  0  0  0  0  0  0  0  0
    4.8705    0.0000    0.0000 C   0  0  0  0  0  0  0  0  0  0  0  0
    3.0367    1.4624    0.0000 C   0  0  0  0  0  0  0  0  0  0  0  0
    4.3881    2.1132    0.0000 O   0  0  0  0  0  0  0  0  0  0  0  0
    4.5002    3.6090    0.0000 C   0  0  0  0  0  0  0  0  0  0  0  0
    5.8517    4.2598    0.0000 C   0  0  0  0  0  0  0  0  0  0  0  0
    5.9638    5.7557    0.0000 C   0  0  0  0  0  0  0  0  0  0  0  0
    7.3152    6.4065    0.0000 O   0  0  0  0  0  0  0  0  0  0  0  0
    8.5546    5.5615    0.0000 C   0  0  0  0  0  0  0  0  0  0  0  0
    4.7244    6.6006    0.0000 C   0  0  0  0  0  0  0  0  0  0  0  0
    4.8365    8.0964    0.0000 O   0  0  0  0  0  0  0  0  0  0  0  0
    3.3730    5.9498    0.0000 C   0  0  0  0  0  0  0  0  0  0  0  0
    2.1336    6.7948    0.0000 C   0  0  0  0  0  0  0  0  0  0  0  0
    3.2609    4.4540    0.0000 O   0  0  0  0  0  0  0  0  0  0  0  0
    2.1015    2.6351    0.0000 C   0  0  0  0  0  0  0  0  0  0  0  0
    2.6628    3.8629    0.0000 C   0  0  0  0  0  0  0  0  0  0  0  0
    0.7500    3.2860    0.0000 C   0  0  0  0  0  0  0  0  0  0  0  0
    1.0838    4.7484    0.0000 O   0  0  0  0  0  0  0  0  0  0  0  0
   -0.7500    3.2860    0.0000 O   0  0  0  0  0  0  0  0  0  0  0  0
   -2.1015    2.6351    0.0000 C   0  0  0  0  0  0  0  0  0  0  0  0
   -3.0367    3.8079    0.0000 C   0  0  0  0  0  0  0  0  0  0  0  0
   -2.4887    5.2042    0.0000 C   0  0  0  0  0  0  0  0  0  0  0  0
   -3.0367    1.4624    0.0000 C   0  0  0  0  0  0  0  0  0  0  0  0
   -4.5199    1.2388    0.0000 C   0  0  0  0  0  0  0  0  0  0  0  0
   -3.7867    2.7614    0.0000 O   0  0  0  0  0  0  0  0  0  0  0  0
   -3.3705    0.0000    0.0000 C   0  0  0  0  0  0  0  0  0  0  0  0
   -4.8705    0.0000    0.0000 O   0  0  0  0  0  0  0  0  0  0  0  0
   -3.0367   -1.4624    0.0000 C   0  0  0  0  0  0  0  0  0  0  0  0
   -4.3881   -2.1132    0.0000 C   0  0  0  0  0  0  0  0  0  0  0  0
   -2.1015   -2.6351    0.0000 C   0  0  0  0  0  0  0  0  0  0  0  0
   -3.0367   -3.8079    0.0000 O   0  0  0  0  0  0  0  0  0  0  0  0
   -0.7500   -3.2860    0.0000 C   0  0  0  0  0  0  0  0  0  0  0  0
   -1.0838   -4.7484    0.0000 C   0  0  0  0  0  0  0  0  0  0  0  0
    0.7500   -3.2860    0.0000 C   0  0  0  0  0  0  0  0  0  0  0  0
    2.1015   -2.6351    0.0000 C   0  0  0  0  0  0  0  0  0  0  0  0
    3.5348   -3.0773    0.0000 C   0  0  0  0  0  0  0  0  0  0  0  0
    1.9669   -3.4209    0.0000 O   0  0  0  0  0  0  0  0  0  0  0  0
    5.8517   -4.2598    0.0000 O   0  0  0  0  0  0  0  0  0  0  0  0
    5.9638   -5.7557    0.0000 C   0  0  0  0  0  0  0  0  0  0  0  0
    7.3152   -6.4065    0.0000 C   0  0  0  0  0  0  0  0  0  0  0  0
    4.7244   -6.6006    0.0000 C   0  0  0  0  0  0  0  0  0  0  0  0
    3.3730   -5.9498    0.0000 C   0  0  0  0  0  0  0  0  0  0  0  0
    2.1336   -6.7948    0.0000 N   0  0  0  0  0  0  0  0  0  0  0  0
    2.2457   -8.2906    0.0000 C   0  0  0  0  0  0  0  0  0  0  0  0
    0.7129   -6.3136    0.0000 C   0  0  0  0  0  0  0  0  0  0  0  0
  1  2  1  0
  2  3  1  0
  3  4  2  0
  3  5  1  0
  5  6  1  0
  6  7  1  0
  7  8  1  0
  8  9  1  0
  9 10  1  0
 10 11  1  0
 10 12  1  0
 12 13  1  0
 13 14  1  0
 14 15  1  0
 15 16  1  0
 16 17  1  0
 17 18  1  0
 16 19  1  0
 19 20  1  0
 19 21  1  0
 21 22  1  0
 21 23  1  0
 12 24  1  0
 24 25  1  0
 24 26  1  0
 26 27  2  0
 26 28  1  0
 28 29  1  0
 29 30  1  0
 30 31  1  0
 29 32  1  0
 32 33  1  0
 32 34  1  0
 32 35  1  0
 35 36  1  0
 35 37  1  0
 37 38  1  0
 37 39  1  0
 39 40  2  0
 39 41  1  0
 41 42  1  0
 41 43  1  0
 43 44  1  0
 44 45  1  0
 44 46  1  0
  7 47  1  0
 47 48  1  0
 48 49  1  0
 48 50  1  0
 50 51  1  0
 51 52  1  0
 52 53  1  0
 52 54  1  0
 51  6  1  0
 44  9  1  0
 23 14  1  0
M  END
>  <ChEMBL_IDs>  (351) 
nan

>  <target_organism>  (351) 
nan

>  <target_molecule_pref_name>  (351) 
nan

>  <# Known Targets>  (351) 
nan

>  <Known Targets>  (351) 
nan

>  <smiles>  (351) 
CCC(=O)OC1C(OC2C(C)C(OC3CC(OC)C(O)C(C)O3)C(C)C(=O)OC(CC)C(C)(O)C(O)C(C)C(=O)C(C)CC2(C)O)OC(C)CC1N(C)C

$$$$

     RDKit          2D

 54 56  0  0  0  0  0  0  0  0999 V2000
   11.0333   -3.8715    0.0000 C   0  0  0  0  0  0  0  0  0  0  0  0
    9.6819   -3.2207    0.0000 C   0  0  0  0  0  0  0  0  0  0  0  0
    8.4425   -4.0657    0.0000 C   0  0  0  0  0  0  0  0  0  0  0  0
    8.6565   -5.1380    0.0000 O   0  0  0  0  0  0  0  0  0  0  0  0
    7.0910   -3.4149    0.0000 O   0  0  0  0  0  0  0  0  0  0  0  0
    5.8517   -4.2598    0.0000 C   0  0  0  0  0  0  0  0  0  0  0  0
    5.9638   -5.7557    0.0000 C   0  0  0  0  0  0  0  0  0  0  0  0
    7.3152   -6.4065    0.0000 N   0  0  0  0  0  0  0  0  0  0  0  0
    7.4273   -7.9023    0.0000 C   0  0  0  0  0  0  0  0  0  0  0  0
    8.2871   -5.9052    0.0000 C   0  0  0  0  0  0  0  0  0  0  0  0
    4.7244   -6.6006    0.0000 C   0  0  0  0  0  0  0  0  0  0  0  0
    3.3730   -5.9498    0.0000 C   0  0  0  0  0  0  0  0  0  0  0  0
    2.1336   -6.7948    0.0000 C   0  0  0  0  0  0  0  0  0  0  0  0
    3.2609   -4.4540    0.0000 O   0  0  0  0  0  0  0  0  0  0  0  0
    4.5002   -3.6090    0.0000 C   0  0  0  0  0  0  0  0  0  0  0  0
    4.3881   -2.1132    0.0000 O   0  0  0  0  0  0  0  0  0  0  0  0
    3.0367   -1.4624    0.0000 C   0  0  0  0  0  0  0  0  0  0  0  0
    3.3705    0.0000    0.0000 C   0  0  0  0  0  0  0  0  0  0  0  0
    4.8259   -0.3630    0.0000 C   0  0  0  0  0  0  0  0  0  0  0  0
    3.0367    1.4624    0.0000 C   0  0  0  0  0  0  0  0  0  0  0  0
    4.3881    2.1132    0.0000 O   0  0  0  0  0  0  0  0  0  0  0  0
    5.6275    1.2682    0.0000 C   0  0  0  0  0  0  0  0  0  0  0  0
    5.5154   -0.2276    0.0000 C   0  0  0  0  0  0  0  0  0  0  0  0
    6.7548   -1.0725    0.0000 C   0  0  0  0  0  0  0  0  0  0  0  0
    6.6427   -2.5684    0.0000 O   0  0  0  0  0  0  0  0  0  0  0  0
    8.0497   -3.0883    0.0000 C   0  0  0  0  0  0  0  0  0  0  0  0
    8.1062   -0.4217    0.0000 C   0  0  0  0  0  0  0  0  0  0  0  0
    9.3456   -1.2667    0.0000 O   0  0  0  0  0  0  0  0  0  0  0  0
    8.2183    1.0741    0.0000 C   0  0  0  0  0  0  0  0  0  0  0  0
    9.5698    1.7249    0.0000 C   0  0  0  0  0  0  0  0  0  0  0  0
    6.9790    1.9191    0.0000 O   0  0  0  0  0  0  0  0  0  0  0  0
    2.1015    2.6351    0.0000 C   0  0  0  0  0  0  0  0  0  0  0  0
    3.0367    3.8079    0.0000 C   0  0  0  0  0  0  0  0  0  0  0  0
    0.7500    3.2860    0.0000 C   0  0  0  0  0  0  0  0  0  0  0  0
    1.0838    4.7484    0.0000 O   0  0  0  0  0  0  0  0  0  0  0  0
   -0.7500    3.2860    0.0000 O   0  0  0  0  0  0  0  0  0  0  0  0
   -2.1015    2.6351    0.0000 C   0  0  0  0  0  0  0  0  0  0  0  0
   -3.0367    3.8079    0.0000 C   0  0  0  0  0  0  0  0  0  0  0  0
   -2.4887    5.2042    0.0000 C   0  0  0  0  0  0  0  0  0  0  0  0
   -3.0367    1.4624    0.0000 C   0  0  0  0  0  0  0  0  0  0  0  0
   -4.5199    1.2388    0.0000 C   0  0  0  0  0  0  0  0  0  0  0  0
   -3.7867    2.7614    0.0000 O   0  0  0  0  0  0  0  0  0  0  0  0
   -3.3705    0.0000    0.0000 C   0  0  0  0  0  0  0  0  0  0  0  0
   -4.8705    0.0000    0.0000 O   0  0  0  0  0  0  0  0  0  0  0  0
   -3.0367   -1.4624    0.0000 C   0  0  0  0  0  0  0  0  0  0  0  0
   -4.3881   -2.1132    0.0000 C   0  0  0  0  0  0  0  0  0  0  0  0
   -2.1015   -2.6351    0.0000 C   0  0  0  0  0  0  0  0  0  0  0  0
   -3.0367   -3.8079    0.0000 O   0  0  0  0  0  0  0  0  0  0  0  0
   -0.7500   -3.2860    0.0000 C   0  0  0  0  0  0  0  0  0  0  0  0
   -1.0838   -4.7484    0.0000 C   0  0  0  0  0  0  0  0  0  0  0  0
    0.7500   -3.2860    0.0000 C   0  0  0  0  0  0  0  0  0  0  0  0
    2.1015   -2.6351    0.0000 C   0  0  0  0  0  0  0  0  0  0  0  0
    3.5348   -3.0773    0.0000 C   0  0  0  0  0  0  0  0  0  0  0  0
    2.2135   -4.1309    0.0000 O   0  0  0  0  0  0  0  0  0  0  0  0
  1  2  1  0
  2  3  1  0
  3  4  2  0
  3  5  1  0
  5  6  1  0
  6  7  1  0
  7  8  1  0
  8  9  1  0
  8 10  1  0
  7 11  1  0
 11 12  1  0
 12 13  1  0
 12 14  1  0
 14 15  1  0
 15 16  1  1
 17 16  1  6
 17 18  1  0
 18 19  1  1
 18 20  1  0
 20 21  1  6
 22 21  1  6
 22 23  1  0
 23 24  1  0
 24 25  1  0
 25 26  1  0
 24 27  1  0
 27 28  1  6
 27 29  1  0
 29 30  1  0
 29 31  1  0
 20 32  1  0
 32 33  1  1
 32 34  1  0
 34 35  2  0
 34 36  1  0
 36 37  1  0
 37 38  1  6
 38 39  1  0
 37 40  1  0
 40 41  1  6
 40 42  1  0
 40 43  1  0
 43 44  1  6
 43 45  1  0
 45 46  1  1
 45 47  1  0
 47 48  2  0
 47 49  1  0
 49 50  1  6
 49 51  1  0
 51 52  1  0
 52 53  1  6
 52 54  1  0
 15  6  1  0
 52 17  1  0
 31 22  1  0
M  END
>  <ChEMBL_IDs>  (352) 
CHEMBL1893483

>  <target_organism>  (352) 
Staphylococcus aureus

>  <target_molecule_pref_name>  (352) 
nan

>  <# Known Targets>  (352) 
nan

>  <Known Targets>  (352) 
nan

>  <smiles>  (352) 
CCC(=O)OC1C(N(C)C)CC(C)O[C@H]1O[C@H]1[C@H](C)[C@@H](O[C@H]2CC(OC)[C@@H](O)C(C)O2)[C@H](C)C(=O)O[C@@H](CC)[C@](C)(O)[C@@H](O)[C@H](C)C(=O)[C@@H](C)C[C@]1(C)O

$$$$

     RDKit          2D

 54 56  0  0  0  0  0  0  0  0999 V2000
    5.6205   -1.2990    0.0000 C   0  0  0  0  0  0  0  0  0  0  0  0
    4.8705    0.0000    0.0000 C   0  0  0  0  0  0  0  0  0  0  0  0
    3.3705    0.0000    0.0000 C   0  0  0  0  0  0  0  0  0  0  0  0
    3.0367   -1.4624    0.0000 O   0  0  0  0  0  0  0  0  0  0  0  0
    2.1015   -2.6351    0.0000 C   0  0  0  0  0  0  0  0  0  0  0  0
    3.0367   -3.8079    0.0000 O   0  0  0  0  0  0  0  0  0  0  0  0
    0.7500   -3.2860    0.0000 C   0  0  0  0  0  0  0  0  0  0  0  0
    1.3600   -4.4903    0.0000 C   0  0  0  0  0  0  0  0  0  0  0  0
   -0.7500   -3.2860    0.0000 C   0  0  0  0  0  0  0  0  0  0  0  0
   -1.0838   -4.7484    0.0000 O   0  0  0  0  0  0  0  0  0  0  0  0
    0.0158   -5.7686    0.0000 C   0  0  0  0  0  0  0  0  0  0  0  0
   -0.3180   -7.2310    0.0000 C   0  0  0  0  0  0  0  0  0  0  0  0
    0.7816   -8.2513    0.0000 C   0  0  0  0  0  0  0  0  0  0  0  0
    1.4659   -9.5861    0.0000 C   0  0  0  0  0  0  0  0  0  0  0  0
   -0.4141   -9.1570    0.0000 O   0  0  0  0  0  0  0  0  0  0  0  0
   -0.2276  -10.6453    0.0000 C   0  0  0  0  0  0  0  0  0  0  0  0
    2.2150   -7.8091    0.0000 C   0  0  0  0  0  0  0  0  0  0  0  0
    3.3145   -8.8294    0.0000 O   0  0  0  0  0  0  0  0  0  0  0  0
    2.5487   -6.3467    0.0000 C   0  0  0  0  0  0  0  0  0  0  0  0
    3.9821   -5.9046    0.0000 C   0  0  0  0  0  0  0  0  0  0  0  0
    1.4492   -5.3265    0.0000 O   0  0  0  0  0  0  0  0  0  0  0  0
   -2.1015   -2.6351    0.0000 C   0  0  0  0  0  0  0  0  0  0  0  0
   -3.0367   -3.8079    0.0000 C   0  0  0  0  0  0  0  0  0  0  0  0
   -3.0367   -1.4624    0.0000 C   0  0  0  0  0  0  0  0  0  0  0  0
   -4.3881   -2.1132    0.0000 O   0  0  0  0  0  0  0  0  0  0  0  0
   -5.6275   -1.2682    0.0000 C   0  0  0  0  0  0  0  0  0  0  0  0
   -5.5154    0.2276    0.0000 O   0  0  0  0  0  0  0  0  0  0  0  0
   -6.7548    1.0725    0.0000 C   0  0  0  0  0  0  0  0  0  0  0  0
   -6.6427    2.5684    0.0000 C   0  0  0  0  0  0  0  0  0  0  0  0
   -8.1062    0.4217    0.0000 C   0  0  0  0  0  0  0  0  0  0  0  0
   -8.2183   -1.0741    0.0000 C   0  0  0  0  0  0  0  0  0  0  0  0
   -9.5698   -1.7249    0.0000 N   0  0  0  0  0  0  0  0  0  0  0  0
  -10.8091   -0.8799    0.0000 C   0  0  0  0  0  0  0  0  0  0  0  0
   -9.7838   -2.7973    0.0000 C   0  0  0  0  0  0  0  0  0  0  0  0
   -6.9790   -1.9191    0.0000 C   0  0  0  0  0  0  0  0  0  0  0  0
   -7.0910   -3.4149    0.0000 O   0  0  0  0  0  0  0  0  0  0  0  0
   -8.4425   -4.0657    0.0000 C   0  0  0  0  0  0  0  0  0  0  0  0
   -8.5546   -5.5615    0.0000 C   0  0  0  0  0  0  0  0  0  0  0  0
   -9.4143   -3.5644    0.0000 O   0  0  0  0  0  0  0  0  0  0  0  0
   -3.3705    0.0000    0.0000 C   0  0  0  0  0  0  0  0  0  0  0  0
   -4.6098   -0.8450    0.0000 C   0  0  0  0  0  0  0  0  0  0  0  0
   -4.6098    0.8450    0.0000 O   0  0  0  0  0  0  0  0  0  0  0  0
   -3.0367    1.4624    0.0000 C   0  0  0  0  0  0  0  0  0  0  0  0
   -2.1015    2.6351    0.0000 C   0  0  0  0  0  0  0  0  0  0  0  0
   -3.0367    3.8079    0.0000 C   0  0  0  0  0  0  0  0  0  0  0  0
   -0.7500    3.2860    0.0000 C   0  0  0  0  0  0  0  0  0  0  0  0
   -1.0838    4.7484    0.0000 O   0  0  0  0  0  0  0  0  0  0  0  0
    0.7500    3.2860    0.0000 C   0  0  0  0  0  0  0  0  0  0  0  0
    1.0838    4.7484    0.0000 C   0  0  0  0  0  0  0  0  0  0  0  0
    2.1015    2.6351    0.0000 C   0  0  0  0  0  0  0  0  0  0  0  0
    3.0367    3.8079    0.0000 O   0  0  0  0  0  0  0  0  0  0  0  0
    3.0367    1.4624    0.0000 C   0  0  0  0  0  0  0  0  0  0  0  0
    3.7867    2.7614    0.0000 C   0  0  0  0  0  0  0  0  0  0  0  0
    4.5199    1.2388    0.0000 O   0  0  0  0  0  0  0  0  0  0  0  0
  1  2  1  0
  3  2  1  1
  3  4  1  0
  4  5  1  0
  5  6  2  0
  5  7  1  0
  7  8  1  6
  7  9  1  0
  9 10  1  1
 11 10  1  6
 11 12  1  0
 12 13  1  0
 13 14  1  1
 13 15  1  0
 15 16  1  0
 13 17  1  0
 17 18  1  6
 17 19  1  0
 19 20  1  1
 19 21  1  0
  9 22  1  0
 22 23  1  6
 22 24  1  0
 24 25  1  1
 26 25  1  1
 26 27  1  0
 27 28  1  0
 28 29  1  1
 28 30  1  0
 30 31  1  0
 31 32  1  1
 32 33  1  0
 32 34  1  0
 31 35  1  0
 35 36  1  6
 36 37  1  0
 37 38  1  0
 37 39  2  0
 24 40  1  0
 40 41  1  1
 40 42  1  0
 40 43  1  0
 43 44  1  0
 44 45  1  1
 44 46  1  0
 46 47  2  0
 46 48  1  0
 48 49  1  6
 48 50  1  0
 50 51  1  1
 50 52  1  0
 52 53  1  1
 52 54  1  0
 52  3  1  0
 21 11  1  0
 35 26  1  0
M  END
>  <ChEMBL_IDs>  (353) 
CHEMBL2110577

>  <target_organism>  (353) 
Plasmodium falciparum

>  <target_molecule_pref_name>  (353) 
nan

>  <# Known Targets>  (353) 
nan

>  <Known Targets>  (353) 
nan

>  <smiles>  (353) 
CC[C@H]1OC(=O)[C@H](C)[C@@H](O[C@H]2C[C@@](C)(OC)[C@@H](O)[C@H](C)O2)[C@H](C)[C@@H](O[C@@H]2O[C@H](C)C[C@H](N(C)C)[C@H]2OC(C)=O)[C@](C)(O)C[C@@H](C)C(=O)[C@H](C)[C@@H](O)[C@]1(C)O

$$$$

     RDKit          2D

 53 55  0  0  0  0  0  0  0  0999 V2000
    7.2941    8.6367    0.0000 C   0  0  0  0  0  0  0  0  0  0  0  0
    6.2151    7.5947    0.0000 C   0  0  0  0  0  0  0  0  0  0  0  0
    5.1361    6.5527    0.0000 C   0  0  0  0  0  0  0  0  0  0  0  0
    4.2973    7.7962    0.0000 O   0  0  0  0  0  0  0  0  0  0  0  0
    3.7658    5.9426    0.0000 C   0  0  0  0  0  0  0  0  0  0  0  0
    2.5523    6.8242    0.0000 C   0  0  0  0  0  0  0  0  0  0  0  0
    3.6090    4.4508    0.0000 O   0  0  0  0  0  0  0  0  0  0  0  0
    4.8225    3.5691    0.0000 C   0  0  0  0  0  0  0  0  0  0  0  0
    4.6658    2.0773    0.0000 O   0  0  0  0  0  0  0  0  0  0  0  0
    3.2954    1.4672    0.0000 C   0  0  0  0  0  0  0  0  0  0  0  0
    3.6073    0.0000    0.0000 C   0  0  0  0  0  0  0  0  0  0  0  0
    5.1073    0.0000    0.0000 C   0  0  0  0  0  0  0  0  0  0  0  0
    3.2954   -1.4672    0.0000 C   0  0  0  0  0  0  0  0  0  0  0  0
    4.6658   -2.0773    0.0000 O   0  0  0  0  0  0  0  0  0  0  0  0
    4.8225   -3.5691    0.0000 C   0  0  0  0  0  0  0  0  0  0  0  0
    3.6090   -4.4508    0.0000 O   0  0  0  0  0  0  0  0  0  0  0  0
    3.7658   -5.9426    0.0000 C   0  0  0  0  0  0  0  0  0  0  0  0
    2.5523   -6.8242    0.0000 C   0  0  0  0  0  0  0  0  0  0  0  0
    5.1361   -6.5527    0.0000 C   0  0  0  0  0  0  0  0  0  0  0  0
    6.3497   -5.6710    0.0000 C   0  0  0  0  0  0  0  0  0  0  0  0
    7.7200   -6.2811    0.0000 N   0  0  0  0  0  0  0  0  0  0  0  0
    7.8768   -7.7729    0.0000 C   0  0  0  0  0  0  0  0  0  0  0  0
    8.9335   -5.3994    0.0000 C   0  0  0  0  0  0  0  0  0  0  0  0
    6.1929   -4.1792    0.0000 C   0  0  0  0  0  0  0  0  0  0  0  0
    7.4064   -3.2975    0.0000 O   0  0  0  0  0  0  0  0  0  0  0  0
    2.4138   -2.6807    0.0000 C   0  0  0  0  0  0  0  0  0  0  0  0
    3.8692   -3.0436    0.0000 C   0  0  0  0  0  0  0  0  0  0  0  0
    2.6225   -4.1661    0.0000 O   0  0  0  0  0  0  0  0  0  0  0  0
    1.1147   -3.4307    0.0000 C   0  0  0  0  0  0  0  0  0  0  0  0
   -0.3771   -3.5875    0.0000 C   0  0  0  0  0  0  0  0  0  0  0  0
   -0.5339   -5.0793    0.0000 C   0  0  0  0  0  0  0  0  0  0  0  0
   -1.8037   -3.1240    0.0000 C   0  0  0  0  0  0  0  0  0  0  0  0
   -2.9184   -2.1203    0.0000 N   0  0  0  0  0  0  0  0  0  0  0  0
   -3.5285   -0.7500    0.0000 C   0  0  0  0  0  0  0  0  0  0  0  0
   -4.9957   -1.0619    0.0000 C   0  0  0  0  0  0  0  0  0  0  0  0
   -3.5285    0.7500    0.0000 C   0  0  0  0  0  0  0  0  0  0  0  0
   -4.9957    1.0619    0.0000 O   0  0  0  0  0  0  0  0  0  0  0  0
   -2.9184    2.1203    0.0000 C   0  0  0  0  0  0  0  0  0  0  0  0
   -4.4175    2.1727    0.0000 C   0  0  0  0  0  0  0  0  0  0  0  0
   -3.4314    3.5299    0.0000 O   0  0  0  0  0  0  0  0  0  0  0  0
   -1.8037    3.1240    0.0000 C   0  0  0  0  0  0  0  0  0  0  0  0
   -2.5537    4.4231    0.0000 C   0  0  0  0  0  0  0  0  0  0  0  0
   -1.8037    5.7221    0.0000 C   0  0  0  0  0  0  0  0  0  0  0  0
   -0.3771    3.5875    0.0000 O   0  0  0  0  0  0  0  0  0  0  0  0
    1.1147    3.4307    0.0000 C   0  0  0  0  0  0  0  0  0  0  0  0
    1.5782    4.8573    0.0000 O   0  0  0  0  0  0  0  0  0  0  0  0
    2.4138    2.6807    0.0000 C   0  0  0  0  0  0  0  0  0  0  0  0
    3.0475    3.8728    0.0000 C   0  0  0  0  0  0  0  0  0  0  0  0
    6.1929    4.1792    0.0000 C   0  0  0  0  0  0  0  0  0  0  0  0
    6.3497    5.6710    0.0000 C   0  0  0  0  0  0  0  0  0  0  0  0
    7.7915    5.2575    0.0000 C   0  0  0  0  0  0  0  0  0  0  0  0
    7.0072    7.0192    0.0000 O   0  0  0  0  0  0  0  0  0  0  0  0
    8.5036    7.1238    0.0000 C   0  0  0  0  0  0  0  0  0  0  0  0
  1  2  3  0
  2  3  1  0
  3  4  1  1
  3  5  1  0
  5  6  1  1
  5  7  1  0
  7  8  1  0
  8  9  1  6
 10  9  1  1
 10 11  1  0
 11 12  1  6
 11 13  1  0
 13 14  1  1
 15 14  1  1
 15 16  1  0
 16 17  1  0
 17 18  1  1
 17 19  1  0
 19 20  1  0
 20 21  1  1
 21 22  1  0
 21 23  1  0
 20 24  1  0
 24 25  1  6
 13 26  1  0
 26 27  1  1
 26 28  1  0
 26 29  1  0
 29 30  1  0
 30 31  1  1
 30 32  1  0
 32 33  1  0
 33 34  1  0
 34 35  1  6
 34 36  1  0
 36 37  1  1
 36 38  1  0
 38 39  1  1
 38 40  1  0
 38 41  1  0
 41 42  1  1
 42 43  1  0
 41 44  1  0
 44 45  1  0
 45 46  2  0
 45 47  1  0
 47 48  1  6
  8 49  1  0
 49 50  1  0
 50 51  1  1
 50 52  1  0
 52 53  1  0
 50  3  1  0
 47 10  1  0
 24 15  1  0
M  END
>  <ChEMBL_IDs>  (354) 
CHEMBL298584

>  <target_organism>  (354) 
None

>  <target_molecule_pref_name>  (354) 
nan

>  <# Known Targets>  (354) 
nan

>  <Known Targets>  (354) 
nan

>  <smiles>  (354) 
C#C[C@@]1(O)[C@H](C)O[C@@H](O[C@H]2[C@H](C)[C@@H](O[C@@H]3O[C@H](C)C[C@H](N(C)C)[C@H]3O)[C@](C)(O)C[C@@H](C)CN[C@H](C)[C@@H](O)[C@](C)(O)[C@@H](CC)OC(=O)[C@@H]2C)C[C@@]1(C)OC

$$$$

     RDKit          2D

 55 57  0  0  0  0  0  0  0  0999 V2000
    5.6205   -1.2990    0.0000 C   0  0  0  0  0  0  0  0  0  0  0  0
    4.8705    0.0000    0.0000 C   0  0  0  0  0  0  0  0  0  0  0  0
    3.3705    0.0000    0.0000 C   0  0  0  0  0  0  0  0  0  0  0  0
    3.0367   -1.4624    0.0000 O   0  0  0  0  0  0  0  0  0  0  0  0
    2.1015   -2.6351    0.0000 C   0  0  0  0  0  0  0  0  0  0  0  0
    3.0367   -3.8079    0.0000 O   0  0  0  0  0  0  0  0  0  0  0  0
    0.7500   -3.2860    0.0000 C   0  0  0  0  0  0  0  0  0  0  0  0
    1.3600   -4.4903    0.0000 C   0  0  0  0  0  0  0  0  0  0  0  0
   -0.7500   -3.2860    0.0000 C   0  0  0  0  0  0  0  0  0  0  0  0
   -1.0838   -4.7484    0.0000 O   0  0  0  0  0  0  0  0  0  0  0  0
    0.0158   -5.7686    0.0000 C   0  0  0  0  0  0  0  0  0  0  0  0
   -0.3180   -7.2310    0.0000 C   0  0  0  0  0  0  0  0  0  0  0  0
    0.7816   -8.2513    0.0000 C   0  0  0  0  0  0  0  0  0  0  0  0
    1.4659   -9.5861    0.0000 C   0  0  0  0  0  0  0  0  0  0  0  0
   -0.4141   -9.1570    0.0000 O   0  0  0  0  0  0  0  0  0  0  0  0
   -0.2276  -10.6453    0.0000 C   0  0  0  0  0  0  0  0  0  0  0  0
    2.2150   -7.8091    0.0000 C   0  0  0  0  0  0  0  0  0  0  0  0
    3.3145   -8.8294    0.0000 O   0  0  0  0  0  0  0  0  0  0  0  0
    2.5487   -6.3467    0.0000 C   0  0  0  0  0  0  0  0  0  0  0  0
    3.9821   -5.9046    0.0000 C   0  0  0  0  0  0  0  0  0  0  0  0
    1.4492   -5.3265    0.0000 O   0  0  0  0  0  0  0  0  0  0  0  0
   -2.1015   -2.6351    0.0000 C   0  0  0  0  0  0  0  0  0  0  0  0
   -3.0367   -3.8079    0.0000 C   0  0  0  0  0  0  0  0  0  0  0  0
   -3.0367   -1.4624    0.0000 C   0  0  0  0  0  0  0  0  0  0  0  0
   -4.3881   -2.1132    0.0000 O   0  0  0  0  0  0  0  0  0  0  0  0
   -5.6275   -1.2682    0.0000 C   0  0  0  0  0  0  0  0  0  0  0  0
   -5.5154    0.2276    0.0000 O   0  0  0  0  0  0  0  0  0  0  0  0
   -6.7548    1.0725    0.0000 C   0  0  0  0  0  0  0  0  0  0  0  0
   -6.2841    2.4968    0.0000 C   0  0  0  0  0  0  0  0  0  0  0  0
   -8.1062    0.4217    0.0000 C   0  0  0  0  0  0  0  0  0  0  0  0
   -8.2183   -1.0741    0.0000 C   0  0  0  0  0  0  0  0  0  0  0  0
   -9.5698   -1.7249    0.0000 N   0  0  0  0  0  0  0  0  0  0  0  0
  -10.8091   -0.8799    0.0000 C   0  0  0  0  0  0  0  0  0  0  0  0
   -9.6819   -3.2207    0.0000 C   0  0  0  0  0  0  0  0  0  0  0  0
   -6.9790   -1.9191    0.0000 C   0  0  0  0  0  0  0  0  0  0  0  0
   -7.0910   -3.4149    0.0000 O   0  0  0  0  0  0  0  0  0  0  0  0
   -3.3705    0.0000    0.0000 C   0  0  0  0  0  0  0  0  0  0  0  0
   -4.6098   -0.8450    0.0000 C   0  0  0  0  0  0  0  0  0  0  0  0
   -4.6098    0.8450    0.0000 O   0  0  0  0  0  0  0  0  0  0  0  0
   -5.9613    0.1942    0.0000 C   0  0  0  0  0  0  0  0  0  0  0  0
   -7.2006    1.0391    0.0000 C   0  0  0  0  0  0  0  0  0  0  0  0
   -7.0885    2.5349    0.0000 N   0  0  0  0  0  0  0  0  0  0  0  0
   -8.3279    3.3799    0.0000 O   0  0  0  0  0  0  0  0  0  0  0  0
   -3.0367    1.4624    0.0000 C   0  0  0  0  0  0  0  0  0  0  0  0
   -2.1015    2.6351    0.0000 C   0  0  0  0  0  0  0  0  0  0  0  0
   -3.0367    3.8079    0.0000 C   0  0  0  0  0  0  0  0  0  0  0  0
   -0.7500    3.2860    0.0000 C   0  0  0  0  0  0  0  0  0  0  0  0
   -1.0838    4.7484    0.0000 O   0  0  0  0  0  0  0  0  0  0  0  0
    0.7500    3.2860    0.0000 C   0  0  0  0  0  0  0  0  0  0  0  0
    1.0838    4.7484    0.0000 C   0  0  0  0  0  0  0  0  0  0  0  0
    2.1015    2.6351    0.0000 C   0  0  0  0  0  0  0  0  0  0  0  0
    3.0367    3.8079    0.0000 O   0  0  0  0  0  0  0  0  0  0  0  0
    3.0367    1.4624    0.0000 C   0  0  0  0  0  0  0  0  0  0  0  0
    3.7867    2.7614    0.0000 C   0  0  0  0  0  0  0  0  0  0  0  0
    4.5199    1.2388    0.0000 O   0  0  0  0  0  0  0  0  0  0  0  0
  1  2  1  0
  3  2  1  1
  3  4  1  0
  4  5  1  0
  5  6  2  0
  5  7  1  0
  7  8  1  6
  7  9  1  0
  9 10  1  1
 11 10  1  6
 11 12  1  0
 12 13  1  0
 13 14  1  1
 13 15  1  0
 15 16  1  0
 13 17  1  0
 17 18  1  6
 17 19  1  0
 19 20  1  1
 19 21  1  0
  9 22  1  0
 22 23  1  6
 22 24  1  0
 24 25  1  1
 26 25  1  1
 26 27  1  0
 27 28  1  0
 28 29  1  1
 28 30  1  0
 30 31  1  0
 31 32  1  1
 32 33  1  0
 32 34  1  0
 31 35  1  0
 35 36  1  6
 24 37  1  0
 37 38  1  6
 37 39  1  0
 39 40  1  0
 40 41  1  0
 41 42  2  0
 42 43  1  0
 37 44  1  0
 44 45  1  0
 45 46  1  1
 45 47  1  0
 47 48  2  0
 47 49  1  0
 49 50  1  6
 49 51  1  0
 51 52  1  1
 51 53  1  0
 53 54  1  1
 53 55  1  0
 53  3  1  0
 21 11  1  0
 35 26  1  0
M  END
>  <ChEMBL_IDs>  (355) 
CHEMBL170333

>  <target_organism>  (355) 
Homo sapiens,None,Escherichia coli K-12

>  <target_molecule_pref_name>  (355) 
nan

>  <# Known Targets>  (355) 
nan

>  <Known Targets>  (355) 
nan

>  <smiles>  (355) 
CC[C@H]1OC(=O)[C@H](C)[C@@H](O[C@H]2C[C@@](C)(OC)[C@@H](O)[C@H](C)O2)[C@H](C)[C@@H](O[C@@H]2O[C@H](C)C[C@H](N(C)C)[C@H]2O)[C@@](C)(OC/C=N/O)C[C@@H](C)C(=O)[C@H](C)[C@@H](O)[C@]1(C)O

$$$$

     RDKit          2D

 57 59  0  0  0  0  0  0  0  0999 V2000
    5.6205   -1.2990    0.0000 C   0  0  0  0  0  0  0  0  0  0  0  0
    4.8705    0.0000    0.0000 C   0  0  0  0  0  0  0  0  0  0  0  0
    3.3705    0.0000    0.0000 C   0  0  0  0  0  0  0  0  0  0  0  0
    3.0367   -1.4624    0.0000 O   0  0  0  0  0  0  0  0  0  0  0  0
    2.1015   -2.6351    0.0000 C   0  0  0  0  0  0  0  0  0  0  0  0
    3.0367   -3.8079    0.0000 O   0  0  0  0  0  0  0  0  0  0  0  0
    0.7500   -3.2860    0.0000 C   0  0  0  0  0  0  0  0  0  0  0  0
    1.3600   -4.4903    0.0000 C   0  0  0  0  0  0  0  0  0  0  0  0
   -0.7500   -3.2860    0.0000 C   0  0  0  0  0  0  0  0  0  0  0  0
   -1.0838   -4.7484    0.0000 O   0  0  0  0  0  0  0  0  0  0  0  0
    0.0158   -5.7686    0.0000 C   0  0  0  0  0  0  0  0  0  0  0  0
   -0.3180   -7.2310    0.0000 C   0  0  0  0  0  0  0  0  0  0  0  0
    0.7816   -8.2513    0.0000 C   0  0  0  0  0  0  0  0  0  0  0  0
    1.4659   -9.5861    0.0000 C   0  0  0  0  0  0  0  0  0  0  0  0
   -0.4141   -9.1570    0.0000 O   0  0  0  0  0  0  0  0  0  0  0  0
   -0.2276  -10.6453    0.0000 C   0  0  0  0  0  0  0  0  0  0  0  0
    2.2150   -7.8091    0.0000 C   0  0  0  0  0  0  0  0  0  0  0  0
    3.3145   -8.8294    0.0000 O   0  0  0  0  0  0  0  0  0  0  0  0
    2.5487   -6.3467    0.0000 C   0  0  0  0  0  0  0  0  0  0  0  0
    3.9821   -5.9046    0.0000 C   0  0  0  0  0  0  0  0  0  0  0  0
    1.4492   -5.3265    0.0000 O   0  0  0  0  0  0  0  0  0  0  0  0
   -2.1015   -2.6351    0.0000 C   0  0  0  0  0  0  0  0  0  0  0  0
   -3.0367   -3.8079    0.0000 C   0  0  0  0  0  0  0  0  0  0  0  0
   -3.0367   -1.4624    0.0000 C   0  0  0  0  0  0  0  0  0  0  0  0
   -4.3881   -2.1132    0.0000 O   0  0  0  0  0  0  0  0  0  0  0  0
   -5.6275   -1.2682    0.0000 C   0  0  0  0  0  0  0  0  0  0  0  0
   -5.5154    0.2276    0.0000 O   0  0  0  0  0  0  0  0  0  0  0  0
   -6.7548    1.0725    0.0000 C   0  0  0  0  0  0  0  0  0  0  0  0
   -6.6427    2.5684    0.0000 C   0  0  0  0  0  0  0  0  0  0  0  0
   -8.1062    0.4217    0.0000 C   0  0  0  0  0  0  0  0  0  0  0  0
   -8.2183   -1.0741    0.0000 C   0  0  0  0  0  0  0  0  0  0  0  0
   -9.5698   -1.7249    0.0000 N   0  0  0  0  0  0  0  0  0  0  0  0
  -10.8091   -0.8799    0.0000 C   0  0  0  0  0  0  0  0  0  0  0  0
   -9.6819   -3.2207    0.0000 C   0  0  0  0  0  0  0  0  0  0  0  0
   -6.9790   -1.9191    0.0000 C   0  0  0  0  0  0  0  0  0  0  0  0
   -7.0910   -3.4149    0.0000 O   0  0  0  0  0  0  0  0  0  0  0  0
   -3.3705    0.0000    0.0000 C   0  0  0  0  0  0  0  0  0  0  0  0
   -4.6098   -0.8450    0.0000 C   0  0  0  0  0  0  0  0  0  0  0  0
   -4.6098    0.8450    0.0000 O   0  0  0  0  0  0  0  0  0  0  0  0
   -3.0367    1.4624    0.0000 C   0  0  0  0  0  0  0  0  0  0  0  0
   -2.1015    2.6351    0.0000 C   0  0  0  0  0  0  0  0  0  0  0  0
   -3.0367    3.8079    0.0000 C   0  0  0  0  0  0  0  0  0  0  0  0
   -0.7500    3.2860    0.0000 C   0  0  0  0  0  0  0  0  0  0  0  0
   -1.0838    4.7484    0.0000 N   0  0  0  0  0  0  0  0  0  0  0  0
    0.7500    3.2860    0.0000 C   0  0  0  0  0  0  0  0  0  0  0  0
    1.0838    4.7484    0.0000 C   0  0  0  0  0  0  0  0  0  0  0  0
    2.1015    2.6351    0.0000 C   0  0  0  0  0  0  0  0  0  0  0  0
    3.0367    3.8079    0.0000 O   0  0  0  0  0  0  0  0  0  0  0  0
    4.5199    3.5843    0.0000 C   0  0  0  0  0  0  0  0  0  0  0  0
    5.4552    4.7571    0.0000 O   0  0  0  0  0  0  0  0  0  0  0  0
    4.9821    2.9348    0.0000 O   0  0  0  0  0  0  0  0  0  0  0  0
    3.0367    1.4624    0.0000 C   0  0  0  0  0  0  0  0  0  0  0  0
    3.7867    2.7614    0.0000 C   0  0  0  0  0  0  0  0  0  0  0  0
    4.5199    1.2388    0.0000 O   0  0  0  0  0  0  0  0  0  0  0  0
    5.4552    2.4116    0.0000 C   0  0  0  0  0  0  0  0  0  0  0  0
    6.9384    2.1880    0.0000 O   0  0  0  0  0  0  0  0  0  0  0  0
    5.2613    3.8990    0.0000 O   0  0  0  0  0  0  0  0  0  0  0  0
  1  2  1  0
  2  3  1  0
  3  4  1  0
  4  5  1  0
  5  6  2  0
  5  7  1  0
  7  8  1  0
  7  9  1  0
  9 10  1  0
 10 11  1  0
 11 12  1  0
 12 13  1  0
 13 14  1  0
 13 15  1  0
 15 16  1  0
 13 17  1  0
 17 18  1  0
 17 19  1  0
 19 20  1  0
 19 21  1  0
  9 22  1  0
 22 23  1  0
 22 24  1  0
 24 25  1  0
 25 26  1  0
 26 27  1  0
 27 28  1  0
 28 29  1  0
 28 30  1  0
 30 31  1  0
 31 32  1  0
 32 33  1  0
 32 34  1  0
 31 35  1  0
 35 36  1  0
 24 37  1  0
 37 38  1  0
 37 39  1  0
 37 40  1  0
 40 41  1  0
 41 42  1  0
 41 43  1  0
 43 44  1  0
 43 45  1  0
 45 46  1  0
 45 47  1  0
 47 48  1  0
 48 49  1  0
 49 50  2  0
 49 51  1  0
 47 52  1  0
 52 53  1  0
 52 54  1  0
 54 55  1  0
 55 56  2  0
 55 57  1  0
 52  3  1  0
 21 11  1  0
 35 26  1  0
M  END
>  <ChEMBL_IDs>  (356) 
CHEMBL1159893

>  <target_organism>  (356) 
nan

>  <target_molecule_pref_name>  (356) 
nan

>  <# Known Targets>  (356) 
nan

>  <Known Targets>  (356) 
nan

>  <smiles>  (356) 
CCC1OC(=O)C(C)C(OC2CC(C)(OC)C(O)C(C)O2)C(C)C(OC2OC(C)CC(N(C)C)C2O)C(C)(O)CC(C)C(N)C(C)C(OC(=O)O)C1(C)OC(=O)O

$$$$

     RDKit          2D

 52 54  0  0  0  0  0  0  0  0999 V2000
    7.1205    1.2990    0.0000 C   0  0  0  0  0  0  0  0  0  0  0  0
    5.6205    1.2990    0.0000 C   0  0  0  0  0  0  0  0  0  0  0  0
    4.8705    0.0000    0.0000 C   0  0  0  0  0  0  0  0  0  0  0  0
    5.6205   -1.2990    0.0000 C   0  0  0  0  0  0  0  0  0  0  0  0
    3.3705    0.0000    0.0000 C   0  0  0  0  0  0  0  0  0  0  0  0
    3.0367   -1.4624    0.0000 O   0  0  0  0  0  0  0  0  0  0  0  0
    2.1015   -2.6351    0.0000 C   0  0  0  0  0  0  0  0  0  0  0  0
    3.0367   -3.8079    0.0000 O   0  0  0  0  0  0  0  0  0  0  0  0
    0.7500   -3.2860    0.0000 C   0  0  0  0  0  0  0  0  0  0  0  0
    1.3600   -4.4903    0.0000 C   0  0  0  0  0  0  0  0  0  0  0  0
   -0.7500   -3.2860    0.0000 C   0  0  0  0  0  0  0  0  0  0  0  0
   -1.0838   -4.7484    0.0000 O   0  0  0  0  0  0  0  0  0  0  0  0
    0.0158   -5.7686    0.0000 C   0  0  0  0  0  0  0  0  0  0  0  0
   -0.3180   -7.2310    0.0000 C   0  0  0  0  0  0  0  0  0  0  0  0
    0.7816   -8.2513    0.0000 C   0  0  0  0  0  0  0  0  0  0  0  0
    1.4659   -9.5861    0.0000 C   0  0  0  0  0  0  0  0  0  0  0  0
   -0.4141   -9.1570    0.0000 O   0  0  0  0  0  0  0  0  0  0  0  0
   -0.2276  -10.6453    0.0000 C   0  0  0  0  0  0  0  0  0  0  0  0
    2.2150   -7.8091    0.0000 C   0  0  0  0  0  0  0  0  0  0  0  0
    3.3145   -8.8294    0.0000 O   0  0  0  0  0  0  0  0  0  0  0  0
    2.5487   -6.3467    0.0000 C   0  0  0  0  0  0  0  0  0  0  0  0
    3.9821   -5.9046    0.0000 C   0  0  0  0  0  0  0  0  0  0  0  0
    1.4492   -5.3265    0.0000 O   0  0  0  0  0  0  0  0  0  0  0  0
   -2.1015   -2.6351    0.0000 C   0  0  0  0  0  0  0  0  0  0  0  0
   -3.0367   -3.8079    0.0000 C   0  0  0  0  0  0  0  0  0  0  0  0
   -3.0367   -1.4624    0.0000 C   0  0  0  0  0  0  0  0  0  0  0  0
   -4.3881   -2.1132    0.0000 O   0  0  0  0  0  0  0  0  0  0  0  0
   -5.6275   -1.2682    0.0000 C   0  0  0  0  0  0  0  0  0  0  0  0
   -5.5154    0.2276    0.0000 O   0  0  0  0  0  0  0  0  0  0  0  0
   -6.7548    1.0725    0.0000 C   0  0  0  0  0  0  0  0  0  0  0  0
   -6.6427    2.5684    0.0000 C   0  0  0  0  0  0  0  0  0  0  0  0
   -8.1062    0.4217    0.0000 C   0  0  0  0  0  0  0  0  0  0  0  0
   -8.2183   -1.0741    0.0000 C   0  0  0  0  0  0  0  0  0  0  0  0
   -9.5698   -1.7249    0.0000 N   0  0  0  0  0  0  0  0  0  0  0  0
  -10.8091   -0.8799    0.0000 C   0  0  0  0  0  0  0  0  0  0  0  0
   -9.6819   -3.2207    0.0000 C   0  0  0  0  0  0  0  0  0  0  0  0
   -6.9790   -1.9191    0.0000 C   0  0  0  0  0  0  0  0  0  0  0  0
   -7.0910   -3.4149    0.0000 O   0  0  0  0  0  0  0  0  0  0  0  0
   -3.3705    0.0000    0.0000 C   0  0  0  0  0  0  0  0  0  0  0  0
   -4.6098   -0.8450    0.0000 C   0  0  0  0  0  0  0  0  0  0  0  0
   -4.6098    0.8450    0.0000 O   0  0  0  0  0  0  0  0  0  0  0  0
   -3.0367    1.4624    0.0000 C   0  0  0  0  0  0  0  0  0  0  0  0
   -2.1015    2.6351    0.0000 C   0  0  0  0  0  0  0  0  0  0  0  0
   -3.0367    3.8079    0.0000 C   0  0  0  0  0  0  0  0  0  0  0  0
   -0.7500    3.2860    0.0000 C   0  0  0  0  0  0  0  0  0  0  0  0
   -1.0838    4.7484    0.0000 O   0  0  0  0  0  0  0  0  0  0  0  0
    0.7500    3.2860    0.0000 C   0  0  0  0  0  0  0  0  0  0  0  0
    1.0838    4.7484    0.0000 C   0  0  0  0  0  0  0  0  0  0  0  0
    2.1015    2.6351    0.0000 C   0  0  0  0  0  0  0  0  0  0  0  0
    3.0367    3.8079    0.0000 O   0  0  0  0  0  0  0  0  0  0  0  0
    3.0367    1.4624    0.0000 C   0  0  0  0  0  0  0  0  0  0  0  0
    4.3881    2.1132    0.0000 C   0  0  0  0  0  0  0  0  0  0  0  0
  1  2  1  0
  2  3  1  0
  3  4  1  0
  3  5  1  0
  5  6  1  0
  6  7  1  0
  7  8  2  0
  7  9  1  0
  9 10  1  0
  9 11  1  0
 11 12  1  0
 12 13  1  0
 13 14  1  0
 14 15  1  0
 15 16  1  0
 15 17  1  0
 17 18  1  0
 15 19  1  0
 19 20  1  0
 19 21  1  0
 21 22  1  0
 21 23  1  0
 11 24  1  0
 24 25  1  0
 24 26  1  0
 26 27  1  0
 27 28  1  0
 28 29  1  0
 29 30  1  0
 30 31  1  0
 30 32  1  0
 32 33  1  0
 33 34  1  0
 34 35  1  0
 34 36  1  0
 33 37  1  0
 37 38  1  0
 26 39  1  0
 39 40  1  0
 39 41  1  0
 39 42  1  0
 42 43  1  0
 43 44  1  0
 43 45  1  0
 45 46  2  0
 45 47  1  0
 47 48  1  0
 47 49  1  0
 49 50  1  0
 49 51  1  0
 51 52  1  0
 51  5  1  0
 23 13  1  0
 37 28  1  0
M  END
>  <ChEMBL_IDs>  (357) 
nan

>  <target_organism>  (357) 
nan

>  <target_molecule_pref_name>  (357) 
nan

>  <# Known Targets>  (357) 
nan

>  <Known Targets>  (357) 
nan

>  <smiles>  (357) 
CCC(C)C1OC(=O)C(C)C(OC2CC(C)(OC)C(O)C(C)O2)C(C)C(OC2OC(C)CC(N(C)C)C2O)C(C)(O)CC(C)C(=O)C(C)C(O)C1C

$$$$

     RDKit          2D

 54 56  0  0  0  0  0  0  0  0999 V2000
    5.6205   -1.2990    0.0000 C   0  0  0  0  0  0  0  0  0  0  0  0
    4.8705    0.0000    0.0000 C   0  0  0  0  0  0  0  0  0  0  0  0
    3.3705    0.0000    0.0000 C   0  0  0  0  0  0  0  0  0  0  0  0
    3.0367   -1.4624    0.0000 O   0  0  0  0  0  0  0  0  0  0  0  0
    2.1015   -2.6351    0.0000 C   0  0  0  0  0  0  0  0  0  0  0  0
    3.0367   -3.8079    0.0000 O   0  0  0  0  0  0  0  0  0  0  0  0
    0.7500   -3.2860    0.0000 C   0  0  0  0  0  0  0  0  0  0  0  0
    1.3600   -4.4903    0.0000 C   0  0  0  0  0  0  0  0  0  0  0  0
   -0.7500   -3.2860    0.0000 C   0  0  0  0  0  0  0  0  0  0  0  0
   -1.0838   -4.7484    0.0000 O   0  0  0  0  0  0  0  0  0  0  0  0
    0.0158   -5.7686    0.0000 C   0  0  0  0  0  0  0  0  0  0  0  0
   -0.3180   -7.2310    0.0000 C   0  0  0  0  0  0  0  0  0  0  0  0
    0.7816   -8.2513    0.0000 C   0  0  0  0  0  0  0  0  0  0  0  0
    1.4659   -9.5861    0.0000 C   0  0  0  0  0  0  0  0  0  0  0  0
   -0.4141   -9.1570    0.0000 O   0  0  0  0  0  0  0  0  0  0  0  0
   -0.2276  -10.6453    0.0000 C   0  0  0  0  0  0  0  0  0  0  0  0
    2.2150   -7.8091    0.0000 C   0  0  0  0  0  0  0  0  0  0  0  0
    3.3145   -8.8294    0.0000 O   0  0  0  0  0  0  0  0  0  0  0  0
    2.5487   -6.3467    0.0000 C   0  0  0  0  0  0  0  0  0  0  0  0
    3.9821   -5.9046    0.0000 C   0  0  0  0  0  0  0  0  0  0  0  0
    1.4492   -5.3265    0.0000 O   0  0  0  0  0  0  0  0  0  0  0  0
   -2.1015   -2.6351    0.0000 C   0  0  0  0  0  0  0  0  0  0  0  0
   -3.0367   -3.8079    0.0000 C   0  0  0  0  0  0  0  0  0  0  0  0
   -3.0367   -1.4624    0.0000 C   0  0  0  0  0  0  0  0  0  0  0  0
   -4.3881   -2.1132    0.0000 O   0  0  0  0  0  0  0  0  0  0  0  0
   -5.6275   -1.2682    0.0000 C   0  0  0  0  0  0  0  0  0  0  0  0
   -5.5154    0.2276    0.0000 O   0  0  0  0  0  0  0  0  0  0  0  0
   -6.7548    1.0725    0.0000 C   0  0  0  0  0  0  0  0  0  0  0  0
   -6.6427    2.5684    0.0000 C   0  0  0  0  0  0  0  0  0  0  0  0
   -8.1062    0.4217    0.0000 C   0  0  0  0  0  0  0  0  0  0  0  0
   -8.2183   -1.0741    0.0000 C   0  0  0  0  0  0  0  0  0  0  0  0
   -9.5698   -1.7249    0.0000 N   0  0  0  0  0  0  0  0  0  0  0  0
  -10.8091   -0.8799    0.0000 C   0  0  0  0  0  0  0  0  0  0  0  0
   -9.6819   -3.2207    0.0000 C   0  0  0  0  0  0  0  0  0  0  0  0
   -6.9790   -1.9191    0.0000 C   0  0  0  0  0  0  0  0  0  0  0  0
   -7.0910   -3.4149    0.0000 O   0  0  0  0  0  0  0  0  0  0  0  0
   -3.3705    0.0000    0.0000 C   0  0  0  0  0  0  0  0  0  0  0  0
   -4.6098   -0.8450    0.0000 C   0  0  0  0  0  0  0  0  0  0  0  0
   -4.6098    0.8450    0.0000 O   0  0  0  0  0  0  0  0  0  0  0  0
   -5.9613    0.1942    0.0000 C   0  0  0  0  0  0  0  0  0  0  0  0
   -7.2006    1.0391    0.0000 C   0  0  0  0  0  0  0  0  0  0  0  0
   -8.6694    0.7347    0.0000 O   0  0  0  0  0  0  0  0  0  0  0  0
   -3.0367    1.4624    0.0000 C   0  0  0  0  0  0  0  0  0  0  0  0
   -2.1015    2.6351    0.0000 C   0  0  0  0  0  0  0  0  0  0  0  0
   -3.0367    3.8079    0.0000 C   0  0  0  0  0  0  0  0  0  0  0  0
   -0.7500    3.2860    0.0000 C   0  0  0  0  0  0  0  0  0  0  0  0
   -1.0838    4.7484    0.0000 O   0  0  0  0  0  0  0  0  0  0  0  0
    0.7500    3.2860    0.0000 C   0  0  0  0  0  0  0  0  0  0  0  0
    1.0838    4.7484    0.0000 C   0  0  0  0  0  0  0  0  0  0  0  0
    2.1015    2.6351    0.0000 C   0  0  0  0  0  0  0  0  0  0  0  0
    3.0367    3.8079    0.0000 O   0  0  0  0  0  0  0  0  0  0  0  0
    3.0367    1.4624    0.0000 C   0  0  0  0  0  0  0  0  0  0  0  0
    3.7867    2.7614    0.0000 C   0  0  0  0  0  0  0  0  0  0  0  0
    4.5199    1.2388    0.0000 O   0  0  0  0  0  0  0  0  0  0  0  0
  1  2  1  0
  3  2  1  1
  3  4  1  0
  4  5  1  0
  5  6  2  0
  5  7  1  0
  7  8  1  6
  7  9  1  0
  9 10  1  1
 11 10  1  6
 11 12  1  0
 12 13  1  0
 13 14  1  1
 13 15  1  0
 15 16  1  0
 13 17  1  0
 17 18  1  6
 17 19  1  0
 19 20  1  1
 19 21  1  0
  9 22  1  0
 22 23  1  6
 22 24  1  0
 24 25  1  1
 26 25  1  1
 26 27  1  0
 27 28  1  0
 28 29  1  1
 28 30  1  0
 30 31  1  0
 31 32  1  1
 32 33  1  0
 32 34  1  0
 31 35  1  0
 35 36  1  6
 24 37  1  0
 37 38  1  6
 37 39  1  0
 39 40  1  0
 40 41  1  0
 41 42  1  0
 37 43  1  0
 43 44  1  0
 44 45  1  1
 44 46  1  0
 46 47  2  0
 46 48  1  0
 48 49  1  6
 48 50  1  0
 50 51  1  1
 50 52  1  0
 52 53  1  1
 52 54  1  0
 52  3  1  0
 21 11  1  0
 35 26  1  0
M  END
>  <ChEMBL_IDs>  (358) 
CHEMBL352381

>  <target_organism>  (358) 
Hepatitis C virus,None

>  <target_molecule_pref_name>  (358) 
nan

>  <# Known Targets>  (358) 
nan

>  <Known Targets>  (358) 
nan

>  <smiles>  (358) 
CC[C@H]1OC(=O)[C@H](C)[C@@H](O[C@H]2C[C@@](C)(OC)[C@@H](O)[C@H](C)O2)[C@H](C)[C@@H](O[C@@H]2O[C@H](C)C[C@H](N(C)C)[C@H]2O)[C@@](C)(OCCO)C[C@@H](C)C(=O)[C@H](C)[C@@H](O)[C@]1(C)O

$$$$

     RDKit          2D

 53 55  0  0  0  0  0  0  0  0999 V2000
    5.8523    9.0501    0.0000 C   0  0  0  0  0  0  0  0  0  0  0  0
    6.2151    7.5947    0.0000 C   0  0  0  0  0  0  0  0  0  0  0  0
    5.1361    6.5527    0.0000 C   0  0  0  0  0  0  0  0  0  0  0  0
    4.2973    7.7962    0.0000 O   0  0  0  0  0  0  0  0  0  0  0  0
    3.7658    5.9426    0.0000 C   0  0  0  0  0  0  0  0  0  0  0  0
    2.5523    6.8242    0.0000 C   0  0  0  0  0  0  0  0  0  0  0  0
    3.6090    4.4508    0.0000 O   0  0  0  0  0  0  0  0  0  0  0  0
    4.8225    3.5691    0.0000 C   0  0  0  0  0  0  0  0  0  0  0  0
    4.6658    2.0773    0.0000 O   0  0  0  0  0  0  0  0  0  0  0  0
    3.2954    1.4672    0.0000 C   0  0  0  0  0  0  0  0  0  0  0  0
    3.6073    0.0000    0.0000 C   0  0  0  0  0  0  0  0  0  0  0  0
    5.1073    0.0000    0.0000 C   0  0  0  0  0  0  0  0  0  0  0  0
    3.2954   -1.4672    0.0000 C   0  0  0  0  0  0  0  0  0  0  0  0
    4.6658   -2.0773    0.0000 O   0  0  0  0  0  0  0  0  0  0  0  0
    4.8225   -3.5691    0.0000 C   0  0  0  0  0  0  0  0  0  0  0  0
    3.6090   -4.4508    0.0000 O   0  0  0  0  0  0  0  0  0  0  0  0
    3.7658   -5.9426    0.0000 C   0  0  0  0  0  0  0  0  0  0  0  0
    2.5523   -6.8242    0.0000 C   0  0  0  0  0  0  0  0  0  0  0  0
    5.1361   -6.5527    0.0000 C   0  0  0  0  0  0  0  0  0  0  0  0
    6.3497   -5.6710    0.0000 C   0  0  0  0  0  0  0  0  0  0  0  0
    7.7200   -6.2811    0.0000 N   0  0  0  0  0  0  0  0  0  0  0  0
    7.8768   -7.7729    0.0000 C   0  0  0  0  0  0  0  0  0  0  0  0
    8.9335   -5.3994    0.0000 C   0  0  0  0  0  0  0  0  0  0  0  0
    6.1929   -4.1792    0.0000 C   0  0  0  0  0  0  0  0  0  0  0  0
    7.4064   -3.2975    0.0000 O   0  0  0  0  0  0  0  0  0  0  0  0
    2.4138   -2.6807    0.0000 C   0  0  0  0  0  0  0  0  0  0  0  0
    3.8692   -3.0436    0.0000 C   0  0  0  0  0  0  0  0  0  0  0  0
    2.6225   -4.1661    0.0000 O   0  0  0  0  0  0  0  0  0  0  0  0
    1.1147   -3.4307    0.0000 C   0  0  0  0  0  0  0  0  0  0  0  0
   -0.3771   -3.5875    0.0000 C   0  0  0  0  0  0  0  0  0  0  0  0
   -0.5339   -5.0793    0.0000 C   0  0  0  0  0  0  0  0  0  0  0  0
   -1.8037   -3.1240    0.0000 C   0  0  0  0  0  0  0  0  0  0  0  0
   -2.9184   -2.1203    0.0000 N   0  0  0  0  0  0  0  0  0  0  0  0
   -3.5285   -0.7500    0.0000 C   0  0  0  0  0  0  0  0  0  0  0  0
   -4.9957   -1.0619    0.0000 C   0  0  0  0  0  0  0  0  0  0  0  0
   -3.5285    0.7500    0.0000 C   0  0  0  0  0  0  0  0  0  0  0  0
   -4.9957    1.0619    0.0000 O   0  0  0  0  0  0  0  0  0  0  0  0
   -2.9184    2.1203    0.0000 C   0  0  0  0  0  0  0  0  0  0  0  0
   -4.4175    2.1727    0.0000 C   0  0  0  0  0  0  0  0  0  0  0  0
   -3.4314    3.5299    0.0000 O   0  0  0  0  0  0  0  0  0  0  0  0
   -1.8037    3.1240    0.0000 C   0  0  0  0  0  0  0  0  0  0  0  0
   -2.5537    4.4231    0.0000 C   0  0  0  0  0  0  0  0  0  0  0  0
   -1.8037    5.7221    0.0000 C   0  0  0  0  0  0  0  0  0  0  0  0
   -0.3771    3.5875    0.0000 O   0  0  0  0  0  0  0  0  0  0  0  0
    1.1147    3.4307    0.0000 C   0  0  0  0  0  0  0  0  0  0  0  0
    1.5782    4.8573    0.0000 O   0  0  0  0  0  0  0  0  0  0  0  0
    2.4138    2.6807    0.0000 C   0  0  0  0  0  0  0  0  0  0  0  0
    3.0475    3.8728    0.0000 C   0  0  0  0  0  0  0  0  0  0  0  0
    6.1929    4.1792    0.0000 C   0  0  0  0  0  0  0  0  0  0  0  0
    6.3497    5.6710    0.0000 C   0  0  0  0  0  0  0  0  0  0  0  0
    7.7915    5.2575    0.0000 C   0  0  0  0  0  0  0  0  0  0  0  0
    7.0072    7.0192    0.0000 O   0  0  0  0  0  0  0  0  0  0  0  0
    8.5036    7.1238    0.0000 C   0  0  0  0  0  0  0  0  0  0  0  0
  1  2  2  0
  2  3  1  0
  3  4  1  1
  3  5  1  0
  5  6  1  1
  5  7  1  0
  7  8  1  0
  8  9  1  6
 10  9  1  1
 10 11  1  0
 11 12  1  6
 11 13  1  0
 13 14  1  1
 15 14  1  1
 15 16  1  0
 16 17  1  0
 17 18  1  1
 17 19  1  0
 19 20  1  0
 20 21  1  1
 21 22  1  0
 21 23  1  0
 20 24  1  0
 24 25  1  6
 13 26  1  0
 26 27  1  1
 26 28  1  0
 26 29  1  0
 29 30  1  0
 30 31  1  1
 30 32  1  0
 32 33  1  0
 33 34  1  0
 34 35  1  6
 34 36  1  0
 36 37  1  1
 36 38  1  0
 38 39  1  1
 38 40  1  0
 38 41  1  0
 41 42  1  1
 42 43  1  0
 41 44  1  0
 44 45  1  0
 45 46  2  0
 45 47  1  0
 47 48  1  6
  8 49  1  0
 49 50  1  0
 50 51  1  1
 50 52  1  0
 52 53  1  0
 50  3  1  0
 47 10  1  0
 24 15  1  0
M  END
>  <ChEMBL_IDs>  (359) 
CHEMBL300816

>  <target_organism>  (359) 
None

>  <target_molecule_pref_name>  (359) 
nan

>  <# Known Targets>  (359) 
nan

>  <Known Targets>  (359) 
nan

>  <smiles>  (359) 
C=C[C@@]1(O)[C@H](C)O[C@@H](O[C@H]2[C@H](C)[C@@H](O[C@@H]3O[C@H](C)C[C@H](N(C)C)[C@H]3O)[C@](C)(O)C[C@@H](C)CN[C@H](C)[C@@H](O)[C@](C)(O)[C@@H](CC)OC(=O)[C@@H]2C)C[C@@]1(C)OC

$$$$

     RDKit          2D

 54 56  0  0  0  0  0  0  0  0999 V2000
    5.6205   -1.2990    0.0000 C   0  0  0  0  0  0  0  0  0  0  0  0
    4.8705    0.0000    0.0000 C   0  0  0  0  0  0  0  0  0  0  0  0
    3.3705    0.0000    0.0000 C   0  0  0  0  0  0  0  0  0  0  0  0
    3.0367   -1.4624    0.0000 O   0  0  0  0  0  0  0  0  0  0  0  0
    2.1015   -2.6351    0.0000 C   0  0  0  0  0  0  0  0  0  0  0  0
    3.0367   -3.8079    0.0000 O   0  0  0  0  0  0  0  0  0  0  0  0
    0.7500   -3.2860    0.0000 C   0  0  0  0  0  0  0  0  0  0  0  0
    1.3600   -4.4903    0.0000 C   0  0  0  0  0  0  0  0  0  0  0  0
   -0.7500   -3.2860    0.0000 C   0  0  0  0  0  0  0  0  0  0  0  0
   -1.0838   -4.7484    0.0000 O   0  0  0  0  0  0  0  0  0  0  0  0
    0.0158   -5.7686    0.0000 C   0  0  0  0  0  0  0  0  0  0  0  0
   -0.3180   -7.2310    0.0000 C   0  0  0  0  0  0  0  0  0  0  0  0
    0.7816   -8.2513    0.0000 C   0  0  0  0  0  0  0  0  0  0  0  0
    1.4659   -9.5861    0.0000 C   0  0  0  0  0  0  0  0  0  0  0  0
   -0.4141   -9.1570    0.0000 O   0  0  0  0  0  0  0  0  0  0  0  0
   -0.2276  -10.6453    0.0000 C   0  0  0  0  0  0  0  0  0  0  0  0
    2.2150   -7.8091    0.0000 C   0  0  0  0  0  0  0  0  0  0  0  0
    2.5487   -6.3467    0.0000 C   0  0  0  0  0  0  0  0  0  0  0  0
    3.9821   -5.9046    0.0000 C   0  0  0  0  0  0  0  0  0  0  0  0
    1.4492   -5.3265    0.0000 O   0  0  0  0  0  0  0  0  0  0  0  0
   -2.1015   -2.6351    0.0000 C   0  0  0  0  0  0  0  0  0  0  0  0
   -3.0367   -3.8079    0.0000 C   0  0  0  0  0  0  0  0  0  0  0  0
   -3.0367   -1.4624    0.0000 C   0  0  0  0  0  0  0  0  0  0  0  0
   -4.3881   -2.1132    0.0000 O   0  0  0  0  0  0  0  0  0  0  0  0
   -5.6275   -1.2682    0.0000 C   0  0  0  0  0  0  0  0  0  0  0  0
   -5.5154    0.2276    0.0000 O   0  0  0  0  0  0  0  0  0  0  0  0
   -6.7548    1.0725    0.0000 C   0  0  0  0  0  0  0  0  0  0  0  0
   -6.6427    2.5684    0.0000 C   0  0  0  0  0  0  0  0  0  0  0  0
   -8.1062    0.4217    0.0000 C   0  0  0  0  0  0  0  0  0  0  0  0
   -8.2183   -1.0741    0.0000 C   0  0  0  0  0  0  0  0  0  0  0  0
   -9.5698   -1.7249    0.0000 N   0  0  0  0  0  0  0  0  0  0  0  0
  -10.8091   -0.8799    0.0000 C   0  0  0  0  0  0  0  0  0  0  0  0
   -9.6819   -3.2207    0.0000 C   0  0  0  0  0  0  0  0  0  0  0  0
  -11.0333   -3.8715    0.0000 C   0  0  0  0  0  0  0  0  0  0  0  0
  -12.2727   -3.0266    0.0000 O   0  0  0  0  0  0  0  0  0  0  0  0
  -11.1454   -5.3673    0.0000 N   0  0  0  0  0  0  0  0  0  0  0  0
  -12.4969   -6.0182    0.0000 C   0  0  0  0  0  0  0  0  0  0  0  0
   -6.9790   -1.9191    0.0000 C   0  0  0  0  0  0  0  0  0  0  0  0
   -7.0910   -3.4149    0.0000 O   0  0  0  0  0  0  0  0  0  0  0  0
   -3.3705    0.0000    0.0000 C   0  0  0  0  0  0  0  0  0  0  0  0
   -4.6098   -0.8450    0.0000 C   0  0  0  0  0  0  0  0  0  0  0  0
   -4.6098    0.8450    0.0000 O   0  0  0  0  0  0  0  0  0  0  0  0
   -3.0367    1.4624    0.0000 C   0  0  0  0  0  0  0  0  0  0  0  0
   -2.1015    2.6351    0.0000 C   0  0  0  0  0  0  0  0  0  0  0  0
   -3.0367    3.8079    0.0000 C   0  0  0  0  0  0  0  0  0  0  0  0
   -0.7500    3.2860    0.0000 C   0  0  0  0  0  0  0  0  0  0  0  0
   -1.0838    4.7484    0.0000 O   0  0  0  0  0  0  0  0  0  0  0  0
    0.7500    3.2860    0.0000 C   0  0  0  0  0  0  0  0  0  0  0  0
    1.0838    4.7484    0.0000 C   0  0  0  0  0  0  0  0  0  0  0  0
    2.1015    2.6351    0.0000 C   0  0  0  0  0  0  0  0  0  0  0  0
    3.0367    3.8079    0.0000 O   0  0  0  0  0  0  0  0  0  0  0  0
    3.0367    1.4624    0.0000 C   0  0  0  0  0  0  0  0  0  0  0  0
    3.7867    2.7614    0.0000 C   0  0  0  0  0  0  0  0  0  0  0  0
    4.5199    1.2388    0.0000 O   0  0  0  0  0  0  0  0  0  0  0  0
  1  2  1  0
  3  2  1  1
  3  4  1  0
  4  5  1  0
  5  6  2  0
  5  7  1  0
  7  8  1  6
  7  9  1  0
  9 10  1  1
 11 10  1  6
 11 12  1  0
 12 13  1  0
 13 14  1  1
 13 15  1  0
 15 16  1  0
 13 17  1  0
 17 18  1  0
 18 19  1  1
 18 20  1  0
  9 21  1  0
 21 22  1  6
 21 23  1  0
 23 24  1  1
 25 24  1  1
 25 26  1  0
 26 27  1  0
 27 28  1  1
 27 29  1  0
 29 30  1  0
 30 31  1  1
 31 32  1  0
 31 33  1  0
 33 34  1  0
 34 35  2  0
 34 36  1  0
 36 37  1  0
 30 38  1  0
 38 39  1  6
 23 40  1  0
 40 41  1  1
 40 42  1  0
 40 43  1  0
 43 44  1  0
 44 45  1  1
 44 46  1  0
 46 47  1  6
 46 48  1  0
 48 49  1  6
 48 50  1  0
 50 51  1  1
 50 52  1  0
 52 53  1  1
 52 54  1  0
 52  3  1  0
 20 11  1  0
 38 25  1  0
M  END
>  <ChEMBL_IDs>  (360) 
CHEMBL1778048

>  <target_organism>  (360) 
Homo sapiens,None,Escherichia coli K-12

>  <target_molecule_pref_name>  (360) 
nan

>  <# Known Targets>  (360) 
nan

>  <Known Targets>  (360) 
nan

>  <smiles>  (360) 
CC[C@H]1OC(=O)[C@H](C)[C@@H](O[C@H]2C[C@@](C)(OC)C[C@H](C)O2)[C@H](C)[C@@H](O[C@@H]2O[C@H](C)C[C@H](N(C)CC(=O)NC)[C@H]2O)[C@](C)(O)C[C@@H](C)[C@H](O)[C@H](C)[C@@H](O)[C@]1(C)O

$$$$

     RDKit          2D

 54 56  0  0  0  0  0  0  0  0999 V2000
    7.8705    2.5981    0.0000 C   0  0  0  0  0  0  0  0  0  0  0  0
    7.1205    1.2990    0.0000 C   0  0  0  0  0  0  0  0  0  0  0  0
    5.6205    1.2990    0.0000 O   0  0  0  0  0  0  0  0  0  0  0  0
    4.8705    0.0000    0.0000 N   0  0  0  0  0  0  0  0  0  0  0  0
    3.3705    0.0000    0.0000 C   0  0  0  0  0  0  0  0  0  0  0  0
    3.0367   -1.4624    0.0000 C   0  0  0  0  0  0  0  0  0  0  0  0
    4.3881   -2.1132    0.0000 C   0  0  0  0  0  0  0  0  0  0  0  0
    2.1015   -2.6351    0.0000 C   0  0  0  0  0  0  0  0  0  0  0  0
    3.0367   -3.8079    0.0000 O   0  0  0  0  0  0  0  0  0  0  0  0
    0.7500   -3.2860    0.0000 C   0  0  0  0  0  0  0  0  0  0  0  0
    1.8496   -4.3062    0.0000 C   0  0  0  0  0  0  0  0  0  0  0  0
    0.2020   -4.6823    0.0000 O   0  0  0  0  0  0  0  0  0  0  0  0
   -0.7500   -3.2860    0.0000 C   0  0  0  0  0  0  0  0  0  0  0  0
   -1.0838   -4.7484    0.0000 C   0  0  0  0  0  0  0  0  0  0  0  0
   -2.5171   -5.1905    0.0000 C   0  0  0  0  0  0  0  0  0  0  0  0
   -2.1015   -2.6351    0.0000 O   0  0  0  0  0  0  0  0  0  0  0  0
   -3.0367   -1.4624    0.0000 C   0  0  0  0  0  0  0  0  0  0  0  0
   -4.3881   -2.1132    0.0000 O   0  0  0  0  0  0  0  0  0  0  0  0
   -3.3705    0.0000    0.0000 C   0  0  0  0  0  0  0  0  0  0  0  0
   -4.6804   -0.3267    0.0000 C   0  0  0  0  0  0  0  0  0  0  0  0
   -3.0367    1.4624    0.0000 C   0  0  0  0  0  0  0  0  0  0  0  0
   -4.3881    2.1132    0.0000 O   0  0  0  0  0  0  0  0  0  0  0  0
   -5.6275    1.2682    0.0000 C   0  0  0  0  0  0  0  0  0  0  0  0
   -6.9790    1.9191    0.0000 C   0  0  0  0  0  0  0  0  0  0  0  0
   -8.2183    1.0741    0.0000 C   0  0  0  0  0  0  0  0  0  0  0  0
   -9.6719    0.7039    0.0000 C   0  0  0  0  0  0  0  0  0  0  0  0
   -8.8352    2.4413    0.0000 O   0  0  0  0  0  0  0  0  0  0  0  0
  -10.3278    2.5907    0.0000 C   0  0  0  0  0  0  0  0  0  0  0  0
   -8.1062   -0.4217    0.0000 C   0  0  0  0  0  0  0  0  0  0  0  0
   -9.3456   -1.2667    0.0000 O   0  0  0  0  0  0  0  0  0  0  0  0
   -6.7548   -1.0725    0.0000 C   0  0  0  0  0  0  0  0  0  0  0  0
   -6.6427   -2.5684    0.0000 C   0  0  0  0  0  0  0  0  0  0  0  0
   -5.5154   -0.2276    0.0000 O   0  0  0  0  0  0  0  0  0  0  0  0
   -2.1015    2.6351    0.0000 C   0  0  0  0  0  0  0  0  0  0  0  0
   -3.0367    3.8079    0.0000 C   0  0  0  0  0  0  0  0  0  0  0  0
   -0.7500    3.2860    0.0000 C   0  0  0  0  0  0  0  0  0  0  0  0
   -1.0838    4.7484    0.0000 O   0  0  0  0  0  0  0  0  0  0  0  0
    0.0158    5.7686    0.0000 C   0  0  0  0  0  0  0  0  0  0  0  0
    1.4492    5.3265    0.0000 O   0  0  0  0  0  0  0  0  0  0  0  0
    2.5487    6.3467    0.0000 C   0  0  0  0  0  0  0  0  0  0  0  0
    3.9821    5.9046    0.0000 C   0  0  0  0  0  0  0  0  0  0  0  0
    2.2150    7.8091    0.0000 C   0  0  0  0  0  0  0  0  0  0  0  0
    0.7816    8.2513    0.0000 C   0  0  0  0  0  0  0  0  0  0  0  0
    0.4478    9.7137    0.0000 N   0  0  0  0  0  0  0  0  0  0  0  0
    1.5474   10.7339    0.0000 C   0  0  0  0  0  0  0  0  0  0  0  0
   -0.9855   10.1558    0.0000 C   0  0  0  0  0  0  0  0  0  0  0  0
   -0.3180    7.2310    0.0000 C   0  0  0  0  0  0  0  0  0  0  0  0
   -1.7513    7.6731    0.0000 O   0  0  0  0  0  0  0  0  0  0  0  0
    0.7500    3.2860    0.0000 C   0  0  0  0  0  0  0  0  0  0  0  0
    0.2020    4.6823    0.0000 C   0  0  0  0  0  0  0  0  0  0  0  0
    1.8496    4.3062    0.0000 O   0  0  0  0  0  0  0  0  0  0  0  0
    2.1015    2.6351    0.0000 C   0  0  0  0  0  0  0  0  0  0  0  0
    3.0367    1.4624    0.0000 C   0  0  0  0  0  0  0  0  0  0  0  0
    4.3881    2.1132    0.0000 C   0  0  0  0  0  0  0  0  0  0  0  0
  1  2  1  0
  2  3  1  0
  3  4  1  0
  4  5  2  0
  5  6  1  0
  6  7  1  6
  6  8  1  0
  8  9  1  1
  8 10  1  0
 10 11  1  1
 10 12  1  0
 10 13  1  0
 13 14  1  1
 14 15  1  0
 13 16  1  0
 16 17  1  0
 17 18  2  0
 17 19  1  0
 19 20  1  6
 19 21  1  0
 21 22  1  1
 22 23  1  0
 23 24  1  0
 24 25  1  0
 25 26  1  1
 25 27  1  0
 27 28  1  0
 25 29  1  0
 29 30  1  6
 29 31  1  0
 31 32  1  1
 31 33  1  0
 21 34  1  0
 34 35  1  6
 34 36  1  0
 36 37  1  1
 38 37  1  1
 38 39  1  0
 39 40  1  0
 40 41  1  1
 40 42  1  0
 42 43  1  0
 43 44  1  1
 44 45  1  0
 44 46  1  0
 43 47  1  0
 47 48  1  6
 36 49  1  0
 49 50  1  1
 49 51  1  0
 49 52  1  0
 52 53  1  0
 53 54  1  1
 53  5  1  0
 33 23  1  0
 47 38  1  0
M  END
>  <ChEMBL_IDs>  (361) 
nan

>  <target_organism>  (361) 
nan

>  <target_molecule_pref_name>  (361) 
nan

>  <# Known Targets>  (361) 
nan

>  <Known Targets>  (361) 
nan

>  <smiles>  (361) 
CCO/N=C1/[C@H](C)[C@@H](O)[C@](C)(O)[C@@H](CC)OC(=O)[C@H](C)[C@@H](OC2C[C@@](C)(OC)[C@@H](O)[C@H](C)O2)[C@H](C)[C@@H](O[C@@H]2O[C@H](C)C[C@H](N(C)C)[C@H]2O)[C@](C)(O)C[C@H]1C

$$$$

     RDKit          2D

 55 57  0  0  0  0  0  0  0  0999 V2000
    5.6205   -1.2990    0.0000 C   0  0  0  0  0  0  0  0  0  0  0  0
    4.8705    0.0000    0.0000 C   0  0  0  0  0  0  0  0  0  0  0  0
    3.3705    0.0000    0.0000 C   0  0  0  0  0  0  0  0  0  0  0  0
    3.0367   -1.4624    0.0000 O   0  0  0  0  0  0  0  0  0  0  0  0
    2.1015   -2.6351    0.0000 C   0  0  0  0  0  0  0  0  0  0  0  0
    3.0367   -3.8079    0.0000 O   0  0  0  0  0  0  0  0  0  0  0  0
    0.7500   -3.2860    0.0000 C   0  0  0  0  0  0  0  0  0  0  0  0
    1.3600   -4.4903    0.0000 C   0  0  0  0  0  0  0  0  0  0  0  0
   -0.7500   -3.2860    0.0000 C   0  0  0  0  0  0  0  0  0  0  0  0
   -1.0838   -4.7484    0.0000 O   0  0  0  0  0  0  0  0  0  0  0  0
    0.0158   -5.7686    0.0000 C   0  0  0  0  0  0  0  0  0  0  0  0
   -0.3180   -7.2310    0.0000 C   0  0  0  0  0  0  0  0  0  0  0  0
    0.7816   -8.2513    0.0000 C   0  0  0  0  0  0  0  0  0  0  0  0
    1.4659   -9.5861    0.0000 C   0  0  0  0  0  0  0  0  0  0  0  0
   -0.4141   -9.1570    0.0000 O   0  0  0  0  0  0  0  0  0  0  0  0
   -0.2276  -10.6453    0.0000 C   0  0  0  0  0  0  0  0  0  0  0  0
    2.2150   -7.8091    0.0000 C   0  0  0  0  0  0  0  0  0  0  0  0
    3.3145   -8.8294    0.0000 O   0  0  0  0  0  0  0  0  0  0  0  0
    2.5487   -6.3467    0.0000 C   0  0  0  0  0  0  0  0  0  0  0  0
    3.9821   -5.9046    0.0000 C   0  0  0  0  0  0  0  0  0  0  0  0
    1.4492   -5.3265    0.0000 O   0  0  0  0  0  0  0  0  0  0  0  0
   -2.1015   -2.6351    0.0000 C   0  0  0  0  0  0  0  0  0  0  0  0
   -3.0367   -3.8079    0.0000 C   0  0  0  0  0  0  0  0  0  0  0  0
   -3.0367   -1.4624    0.0000 C   0  0  0  0  0  0  0  0  0  0  0  0
   -4.3881   -2.1132    0.0000 O   0  0  0  0  0  0  0  0  0  0  0  0
   -5.6275   -1.2682    0.0000 C   0  0  0  0  0  0  0  0  0  0  0  0
   -5.5154    0.2276    0.0000 O   0  0  0  0  0  0  0  0  0  0  0  0
   -6.7548    1.0725    0.0000 C   0  0  0  0  0  0  0  0  0  0  0  0
   -6.6427    2.5684    0.0000 C   0  0  0  0  0  0  0  0  0  0  0  0
   -8.1062    0.4217    0.0000 C   0  0  0  0  0  0  0  0  0  0  0  0
   -8.2183   -1.0741    0.0000 C   0  0  0  0  0  0  0  0  0  0  0  0
   -9.5698   -1.7249    0.0000 N   0  0  0  0  0  0  0  0  0  0  0  0
  -10.8091   -0.8799    0.0000 C   0  0  0  0  0  0  0  0  0  0  0  0
   -9.6819   -3.2207    0.0000 C   0  0  0  0  0  0  0  0  0  0  0  0
  -11.0333   -3.8715    0.0000 C   0  0  0  0  0  0  0  0  0  0  0  0
  -12.2727   -3.0266    0.0000 O   0  0  0  0  0  0  0  0  0  0  0  0
  -11.1454   -5.3673    0.0000 N   0  0  0  0  0  0  0  0  0  0  0  0
  -12.4969   -6.0182    0.0000 C   0  0  0  0  0  0  0  0  0  0  0  0
   -6.9790   -1.9191    0.0000 C   0  0  0  0  0  0  0  0  0  0  0  0
   -7.0910   -3.4149    0.0000 O   0  0  0  0  0  0  0  0  0  0  0  0
   -3.3705    0.0000    0.0000 C   0  0  0  0  0  0  0  0  0  0  0  0
   -4.6098   -0.8450    0.0000 C   0  0  0  0  0  0  0  0  0  0  0  0
   -4.6098    0.8450    0.0000 O   0  0  0  0  0  0  0  0  0  0  0  0
   -3.0367    1.4624    0.0000 C   0  0  0  0  0  0  0  0  0  0  0  0
   -2.1015    2.6351    0.0000 C   0  0  0  0  0  0  0  0  0  0  0  0
   -3.0367    3.8079    0.0000 C   0  0  0  0  0  0  0  0  0  0  0  0
   -0.7500    3.2860    0.0000 C   0  0  0  0  0  0  0  0  0  0  0  0
   -1.0838    4.7484    0.0000 O   0  0  0  0  0  0  0  0  0  0  0  0
    0.7500    3.2860    0.0000 C   0  0  0  0  0  0  0  0  0  0  0  0
    1.0838    4.7484    0.0000 C   0  0  0  0  0  0  0  0  0  0  0  0
    2.1015    2.6351    0.0000 C   0  0  0  0  0  0  0  0  0  0  0  0
    3.0367    3.8079    0.0000 O   0  0  0  0  0  0  0  0  0  0  0  0
    3.0367    1.4624    0.0000 C   0  0  0  0  0  0  0  0  0  0  0  0
    3.7867    2.7614    0.0000 C   0  0  0  0  0  0  0  0  0  0  0  0
    4.5199    1.2388    0.0000 O   0  0  0  0  0  0  0  0  0  0  0  0
  1  2  1  0
  3  2  1  1
  3  4  1  0
  4  5  1  0
  5  6  2  0
  5  7  1  0
  7  8  1  6
  7  9  1  0
  9 10  1  1
 11 10  1  6
 11 12  1  0
 12 13  1  0
 13 14  1  1
 13 15  1  0
 15 16  1  0
 13 17  1  0
 17 18  1  6
 17 19  1  0
 19 20  1  1
 19 21  1  0
  9 22  1  0
 22 23  1  6
 22 24  1  0
 24 25  1  1
 26 25  1  1
 26 27  1  0
 27 28  1  0
 28 29  1  1
 28 30  1  0
 30 31  1  0
 31 32  1  1
 32 33  1  0
 32 34  1  0
 34 35  1  0
 35 36  2  0
 35 37  1  0
 37 38  1  0
 31 39  1  0
 39 40  1  6
 24 41  1  0
 41 42  1  1
 41 43  1  0
 41 44  1  0
 44 45  1  0
 45 46  1  1
 45 47  1  0
 47 48  1  6
 47 49  1  0
 49 50  1  6
 49 51  1  0
 51 52  1  1
 51 53  1  0
 53 54  1  1
 53 55  1  0
 53  3  1  0
 21 11  1  0
 39 26  1  0
M  END
>  <ChEMBL_IDs>  (362) 
CHEMBL1778056

>  <target_organism>  (362) 
Homo sapiens,None,Escherichia coli K-12

>  <target_molecule_pref_name>  (362) 
nan

>  <# Known Targets>  (362) 
nan

>  <Known Targets>  (362) 
nan

>  <smiles>  (362) 
CC[C@H]1OC(=O)[C@H](C)[C@@H](O[C@H]2C[C@@](C)(OC)[C@@H](O)[C@H](C)O2)[C@H](C)[C@@H](O[C@@H]2O[C@H](C)C[C@H](N(C)CC(=O)NC)[C@H]2O)[C@](C)(O)C[C@@H](C)[C@H](O)[C@H](C)[C@@H](O)[C@]1(C)O

$$$$

     RDKit          2D

 53 55  0  0  0  0  0  0  0  0999 V2000
    7.1205   -1.2990    0.0000 C   0  0  0  0  0  0  0  0  0  0  0  0
    5.6205   -1.2990    0.0000 C   0  0  0  0  0  0  0  0  0  0  0  0
    4.8705    0.0000    0.0000 N   0  0  0  0  0  0  0  0  0  0  0  0
    3.3705    0.0000    0.0000 C   0  0  0  0  0  0  0  0  0  0  0  0
    3.0367   -1.4624    0.0000 C   0  0  0  0  0  0  0  0  0  0  0  0
    4.3881   -2.1132    0.0000 C   0  0  0  0  0  0  0  0  0  0  0  0
    2.1015   -2.6351    0.0000 C   0  0  0  0  0  0  0  0  0  0  0  0
    3.0367   -3.8079    0.0000 O   0  0  0  0  0  0  0  0  0  0  0  0
    0.7500   -3.2860    0.0000 C   0  0  0  0  0  0  0  0  0  0  0  0
    1.8496   -4.3062    0.0000 C   0  0  0  0  0  0  0  0  0  0  0  0
    0.2020   -4.6823    0.0000 O   0  0  0  0  0  0  0  0  0  0  0  0
   -0.7500   -3.2860    0.0000 C   0  0  0  0  0  0  0  0  0  0  0  0
   -1.0838   -4.7484    0.0000 C   0  0  0  0  0  0  0  0  0  0  0  0
   -2.5171   -5.1905    0.0000 C   0  0  0  0  0  0  0  0  0  0  0  0
   -2.1015   -2.6351    0.0000 O   0  0  0  0  0  0  0  0  0  0  0  0
   -3.0367   -1.4624    0.0000 C   0  0  0  0  0  0  0  0  0  0  0  0
   -4.3881   -2.1132    0.0000 O   0  0  0  0  0  0  0  0  0  0  0  0
   -3.3705    0.0000    0.0000 C   0  0  0  0  0  0  0  0  0  0  0  0
   -4.6804   -0.3267    0.0000 C   0  0  0  0  0  0  0  0  0  0  0  0
   -3.0367    1.4624    0.0000 C   0  0  0  0  0  0  0  0  0  0  0  0
   -4.3881    2.1132    0.0000 O   0  0  0  0  0  0  0  0  0  0  0  0
   -5.6275    1.2682    0.0000 C   0  0  0  0  0  0  0  0  0  0  0  0
   -6.9790    1.9191    0.0000 C   0  0  0  0  0  0  0  0  0  0  0  0
   -8.2183    1.0741    0.0000 C   0  0  0  0  0  0  0  0  0  0  0  0
   -9.6719    0.7039    0.0000 C   0  0  0  0  0  0  0  0  0  0  0  0
   -8.8352    2.4413    0.0000 O   0  0  0  0  0  0  0  0  0  0  0  0
  -10.3278    2.5907    0.0000 C   0  0  0  0  0  0  0  0  0  0  0  0
   -8.1062   -0.4217    0.0000 C   0  0  0  0  0  0  0  0  0  0  0  0
   -9.3456   -1.2667    0.0000 O   0  0  0  0  0  0  0  0  0  0  0  0
   -6.7548   -1.0725    0.0000 C   0  0  0  0  0  0  0  0  0  0  0  0
   -6.6427   -2.5684    0.0000 C   0  0  0  0  0  0  0  0  0  0  0  0
   -5.5154   -0.2276    0.0000 O   0  0  0  0  0  0  0  0  0  0  0  0
   -2.1015    2.6351    0.0000 C   0  0  0  0  0  0  0  0  0  0  0  0
   -3.0367    3.8079    0.0000 C   0  0  0  0  0  0  0  0  0  0  0  0
   -0.7500    3.2860    0.0000 C   0  0  0  0  0  0  0  0  0  0  0  0
   -1.0838    4.7484    0.0000 O   0  0  0  0  0  0  0  0  0  0  0  0
    0.0158    5.7686    0.0000 C   0  0  0  0  0  0  0  0  0  0  0  0
    1.4492    5.3265    0.0000 O   0  0  0  0  0  0  0  0  0  0  0  0
    2.5487    6.3467    0.0000 C   0  0  0  0  0  0  0  0  0  0  0  0
    3.9821    5.9046    0.0000 C   0  0  0  0  0  0  0  0  0  0  0  0
    2.2150    7.8091    0.0000 C   0  0  0  0  0  0  0  0  0  0  0  0
    0.7816    8.2513    0.0000 C   0  0  0  0  0  0  0  0  0  0  0  0
    0.4478    9.7137    0.0000 N   0  0  0  0  0  0  0  0  0  0  0  0
    1.5474   10.7339    0.0000 C   0  0  0  0  0  0  0  0  0  0  0  0
   -0.9855   10.1558    0.0000 C   0  0  0  0  0  0  0  0  0  0  0  0
   -0.3180    7.2310    0.0000 C   0  0  0  0  0  0  0  0  0  0  0  0
   -1.7513    7.6731    0.0000 O   0  0  0  0  0  0  0  0  0  0  0  0
    0.7500    3.2860    0.0000 C   0  0  0  0  0  0  0  0  0  0  0  0
    0.2020    4.6823    0.0000 C   0  0  0  0  0  0  0  0  0  0  0  0
    1.8496    4.3062    0.0000 O   0  0  0  0  0  0  0  0  0  0  0  0
    2.1015    2.6351    0.0000 C   0  0  0  0  0  0  0  0  0  0  0  0
    3.0367    1.4624    0.0000 C   0  0  0  0  0  0  0  0  0  0  0  0
    4.3881    2.1132    0.0000 C   0  0  0  0  0  0  0  0  0  0  0  0
  1  2  1  0
  2  3  1  0
  4  3  1  6
  4  5  1  0
  5  6  1  6
  5  7  1  0
  7  8  1  1
  7  9  1  0
  9 10  1  1
  9 11  1  0
  9 12  1  0
 12 13  1  1
 13 14  1  0
 12 15  1  0
 15 16  1  0
 16 17  2  0
 16 18  1  0
 18 19  1  6
 18 20  1  0
 20 21  1  1
 21 22  1  0
 22 23  1  0
 23 24  1  0
 24 25  1  0
 24 26  1  0
 26 27  1  0
 24 28  1  0
 28 29  1  0
 28 30  1  0
 30 31  1  0
 30 32  1  0
 20 33  1  0
 33 34  1  6
 33 35  1  0
 35 36  1  1
 36 37  1  0
 37 38  1  0
 38 39  1  0
 39 40  1  0
 39 41  1  0
 41 42  1  0
 42 43  1  0
 43 44  1  0
 43 45  1  0
 42 46  1  0
 46 47  1  0
 35 48  1  0
 48 49  1  1
 48 50  1  0
 48 51  1  0
 51 52  1  0
 52 53  1  1
 52  4  1  0
 32 22  1  0
 46 37  1  0
M  END
>  <ChEMBL_IDs>  (363) 
CHEMBL432605

>  <target_organism>  (363) 
Rattus norvegicus

>  <target_molecule_pref_name>  (363) 
nan

>  <# Known Targets>  (363) 
nan

>  <Known Targets>  (363) 
nan

>  <smiles>  (363) 
CCN[C@@H]1[C@H](C)[C@@H](O)[C@](C)(O)[C@@H](CC)OC(=O)[C@H](C)[C@@H](OC2CC(C)(OC)C(O)C(C)O2)[C@H](C)[C@@H](OC2OC(C)CC(N(C)C)C2O)[C@](C)(O)C[C@H]1C

$$$$

     RDKit          2D

 53 55  0  0  0  0  0  0  0  0999 V2000
    5.6205   -1.2990    0.0000 C   0  0  0  0  0  0  0  0  0  0  0  0
    4.8705    0.0000    0.0000 C   0  0  0  0  0  0  0  0  0  0  0  0
    3.3705    0.0000    0.0000 C   0  0  0  0  0  0  0  0  0  0  0  0
    3.0367   -1.4624    0.0000 O   0  0  0  0  0  0  0  0  0  0  0  0
    2.1015   -2.6351    0.0000 C   0  0  0  0  0  0  0  0  0  0  0  0
    3.0367   -3.8079    0.0000 O   0  0  0  0  0  0  0  0  0  0  0  0
    0.7500   -3.2860    0.0000 C   0  0  0  0  0  0  0  0  0  0  0  0
    1.3600   -4.4903    0.0000 C   0  0  0  0  0  0  0  0  0  0  0  0
   -0.7500   -3.2860    0.0000 C   0  0  0  0  0  0  0  0  0  0  0  0
   -1.0838   -4.7484    0.0000 O   0  0  0  0  0  0  0  0  0  0  0  0
    0.0158   -5.7686    0.0000 C   0  0  0  0  0  0  0  0  0  0  0  0
   -0.3180   -7.2310    0.0000 C   0  0  0  0  0  0  0  0  0  0  0  0
    0.7816   -8.2513    0.0000 C   0  0  0  0  0  0  0  0  0  0  0  0
    1.4659   -9.5861    0.0000 C   0  0  0  0  0  0  0  0  0  0  0  0
   -0.4141   -9.1570    0.0000 O   0  0  0  0  0  0  0  0  0  0  0  0
   -0.2276  -10.6453    0.0000 C   0  0  0  0  0  0  0  0  0  0  0  0
    2.2150   -7.8091    0.0000 C   0  0  0  0  0  0  0  0  0  0  0  0
    3.3145   -8.8294    0.0000 O   0  0  0  0  0  0  0  0  0  0  0  0
    2.5487   -6.3467    0.0000 C   0  0  0  0  0  0  0  0  0  0  0  0
    3.9821   -5.9046    0.0000 C   0  0  0  0  0  0  0  0  0  0  0  0
    1.4492   -5.3265    0.0000 O   0  0  0  0  0  0  0  0  0  0  0  0
   -2.1015   -2.6351    0.0000 C   0  0  0  0  0  0  0  0  0  0  0  0
   -3.0367   -3.8079    0.0000 C   0  0  0  0  0  0  0  0  0  0  0  0
   -3.0367   -1.4624    0.0000 C   0  0  0  0  0  0  0  0  0  0  0  0
   -4.3881   -2.1132    0.0000 O   0  0  0  0  0  0  0  0  0  0  0  0
   -5.6275   -1.2682    0.0000 C   0  0  0  0  0  0  0  0  0  0  0  0
   -5.5154    0.2276    0.0000 O   0  0  0  0  0  0  0  0  0  0  0  0
   -6.7548    1.0725    0.0000 C   0  0  0  0  0  0  0  0  0  0  0  0
   -6.6427    2.5684    0.0000 C   0  0  0  0  0  0  0  0  0  0  0  0
   -8.1062    0.4217    0.0000 C   0  0  0  0  0  0  0  0  0  0  0  0
   -8.2183   -1.0741    0.0000 C   0  0  0  0  0  0  0  0  0  0  0  0
   -9.5698   -1.7249    0.0000 N   0  0  0  0  0  0  0  0  0  0  0  0
  -10.8091   -0.8799    0.0000 C   0  0  0  0  0  0  0  0  0  0  0  0
   -9.6819   -3.2207    0.0000 C   0  0  0  0  0  0  0  0  0  0  0  0
   -6.9790   -1.9191    0.0000 C   0  0  0  0  0  0  0  0  0  0  0  0
   -7.0910   -3.4149    0.0000 O   0  0  0  0  0  0  0  0  0  0  0  0
   -3.3705    0.0000    0.0000 C   0  0  0  0  0  0  0  0  0  0  0  0
   -4.6098   -0.8450    0.0000 C   0  0  0  0  0  0  0  0  0  0  0  0
   -4.6098    0.8450    0.0000 O   0  0  0  0  0  0  0  0  0  0  0  0
   -3.0367    1.4624    0.0000 C   0  0  0  0  0  0  0  0  0  0  0  0
   -2.1015    2.6351    0.0000 C   0  0  0  0  0  0  0  0  0  0  0  0
   -3.0367    3.8079    0.0000 C   0  0  0  0  0  0  0  0  0  0  0  0
   -0.7500    3.2860    0.0000 C   0  0  0  0  0  0  0  0  0  0  0  0
   -1.0838    4.7484    0.0000 N   0  0  0  0  0  0  0  0  0  0  0  0
    0.0158    5.7686    0.0000 C   0  0  0  0  0  0  0  0  0  0  0  0
   -2.5171    5.1905    0.0000 C   0  0  0  0  0  0  0  0  0  0  0  0
    0.7500    3.2860    0.0000 C   0  0  0  0  0  0  0  0  0  0  0  0
    1.0838    4.7484    0.0000 C   0  0  0  0  0  0  0  0  0  0  0  0
    2.1015    2.6351    0.0000 C   0  0  0  0  0  0  0  0  0  0  0  0
    3.0367    3.8079    0.0000 O   0  0  0  0  0  0  0  0  0  0  0  0
    3.0367    1.4624    0.0000 C   0  0  0  0  0  0  0  0  0  0  0  0
    4.3881    2.1132    0.0000 C   0  0  0  0  0  0  0  0  0  0  0  0
    5.6275    1.2682    0.0000 O   0  0  0  0  0  0  0  0  0  0  0  0
  1  2  1  0
  3  2  1  1
  3  4  1  0
  4  5  1  0
  5  6  2  0
  5  7  1  0
  7  8  1  6
  7  9  1  0
  9 10  1  1
 11 10  1  6
 11 12  1  0
 12 13  1  0
 13 14  1  1
 13 15  1  0
 15 16  1  0
 13 17  1  0
 17 18  1  6
 17 19  1  0
 19 20  1  1
 19 21  1  0
  9 22  1  0
 22 23  1  6
 22 24  1  0
 24 25  1  1
 26 25  1  1
 26 27  1  0
 27 28  1  0
 28 29  1  1
 28 30  1  0
 30 31  1  0
 31 32  1  1
 32 33  1  0
 32 34  1  0
 31 35  1  0
 35 36  1  6
 24 37  1  0
 37 38  1  6
 37 39  1  0
 37 40  1  0
 40 41  1  0
 41 42  1  1
 41 43  1  0
 43 44  1  1
 44 45  1  0
 44 46  1  0
 43 47  1  0
 47 48  1  6
 47 49  1  0
 49 50  1  1
 49 51  1  0
 51 52  1  1
 52 53  1  0
 51  3  1  0
 21 11  1  0
 35 26  1  0
M  END
>  <ChEMBL_IDs>  (364) 
nan

>  <target_organism>  (364) 
nan

>  <target_molecule_pref_name>  (364) 
nan

>  <# Known Targets>  (364) 
nan

>  <Known Targets>  (364) 
nan

>  <smiles>  (364) 
CC[C@H]1OC(=O)[C@H](C)[C@@H](O[C@H]2C[C@@](C)(OC)[C@@H](O)[C@H](C)O2)[C@H](C)[C@@H](O[C@@H]2O[C@H](C)C[C@H](N(C)C)[C@H]2O)[C@@](C)(O)C[C@@H](C)[C@@H](N(C)C)[C@H](C)[C@@H](O)[C@H]1CO

$$$$

     RDKit          2D

 53 55  0  0  0  0  0  0  0  0999 V2000
    5.8573   -1.2990    0.0000 C   0  0  0  0  0  0  0  0  0  0  0  0
    5.1073    0.0000    0.0000 C   0  0  0  0  0  0  0  0  0  0  0  0
    3.6073    0.0000    0.0000 C   0  0  0  0  0  0  0  0  0  0  0  0
    3.2954    1.4672    0.0000 O   0  0  0  0  0  0  0  0  0  0  0  0
    2.4138    2.6807    0.0000 C   0  0  0  0  0  0  0  0  0  0  0  0
    3.4175    3.7955    0.0000 O   0  0  0  0  0  0  0  0  0  0  0  0
    1.1147    3.4307    0.0000 C   0  0  0  0  0  0  0  0  0  0  0  0
    1.8302    4.5756    0.0000 C   0  0  0  0  0  0  0  0  0  0  0  0
   -0.3771    3.5875    0.0000 C   0  0  0  0  0  0  0  0  0  0  0  0
   -0.5339    5.0793    0.0000 O   0  0  0  0  0  0  0  0  0  0  0  0
    0.6797    5.9610    0.0000 C   0  0  0  0  0  0  0  0  0  0  0  0
    0.5229    7.4528    0.0000 C   0  0  0  0  0  0  0  0  0  0  0  0
    1.7364    8.3345    0.0000 C   0  0  0  0  0  0  0  0  0  0  0  0
    2.5752    9.5780    0.0000 C   0  0  0  0  0  0  0  0  0  0  0  0
    0.6574    9.3764    0.0000 O   0  0  0  0  0  0  0  0  0  0  0  0
    1.0203   10.8319    0.0000 C   0  0  0  0  0  0  0  0  0  0  0  0
    3.1067    7.7244    0.0000 C   0  0  0  0  0  0  0  0  0  0  0  0
    3.4696    9.1798    0.0000 O   0  0  0  0  0  0  0  0  0  0  0  0
    4.6031    7.6197    0.0000 C   0  0  0  0  0  0  0  0  0  0  0  0
    5.4419    8.8633    0.0000 C   0  0  0  0  0  0  0  0  0  0  0  0
    3.2635    6.2326    0.0000 C   0  0  0  0  0  0  0  0  0  0  0  0
    4.6338    5.6225    0.0000 C   0  0  0  0  0  0  0  0  0  0  0  0
    2.0500    5.3509    0.0000 O   0  0  0  0  0  0  0  0  0  0  0  0
   -1.8037    3.1240    0.0000 C   0  0  0  0  0  0  0  0  0  0  0  0
   -2.5537    4.4231    0.0000 C   0  0  0  0  0  0  0  0  0  0  0  0
   -2.9184    2.1203    0.0000 C   0  0  0  0  0  0  0  0  0  0  0  0
   -4.1319    3.0020    0.0000 O   0  0  0  0  0  0  0  0  0  0  0  0
   -5.5022    2.3919    0.0000 C   0  0  0  0  0  0  0  0  0  0  0  0
   -6.7157    3.2736    0.0000 O   0  0  0  0  0  0  0  0  0  0  0  0
   -8.0861    2.6635    0.0000 C   0  0  0  0  0  0  0  0  0  0  0  0
   -9.2996    3.5451    0.0000 C   0  0  0  0  0  0  0  0  0  0  0  0
   -8.2428    1.1717    0.0000 C   0  0  0  0  0  0  0  0  0  0  0  0
   -7.0293    0.2900    0.0000 C   0  0  0  0  0  0  0  0  0  0  0  0
   -7.1861   -1.2018    0.0000 N   0  0  0  0  0  0  0  0  0  0  0  0
   -8.5564   -1.8119    0.0000 C   0  0  0  0  0  0  0  0  0  0  0  0
   -5.9726   -2.0835    0.0000 C   0  0  0  0  0  0  0  0  0  0  0  0
   -5.6590    0.9001    0.0000 C   0  0  0  0  0  0  0  0  0  0  0  0
   -5.0760    0.3564    0.0000 O   0  0  0  0  0  0  0  0  0  0  0  0
   -3.5285    0.7500    0.0000 C   0  0  0  0  0  0  0  0  0  0  0  0
   -4.2257    0.3635    0.0000 C   0  0  0  0  0  0  0  0  0  0  0  0
   -4.5705    1.8290    0.0000 O   0  0  0  0  0  0  0  0  0  0  0  0
   -3.5285   -0.7500    0.0000 C   0  0  0  0  0  0  0  0  0  0  0  0
   -2.9184   -2.1203    0.0000 C   0  0  0  0  0  0  0  0  0  0  0  0
   -4.1319   -3.0020    0.0000 C   0  0  0  0  0  0  0  0  0  0  0  0
   -1.8037   -3.1240    0.0000 C   0  0  0  0  0  0  0  0  0  0  0  0
   -0.3771   -3.5875    0.0000 N   0  0  0  0  0  0  0  0  0  0  0  0
    1.1147   -3.4307    0.0000 C   0  0  0  0  0  0  0  0  0  0  0  0
    1.5782   -4.8573    0.0000 C   0  0  0  0  0  0  0  0  0  0  0  0
    2.4138   -2.6807    0.0000 C   0  0  0  0  0  0  0  0  0  0  0  0
    3.4175   -3.7955    0.0000 O   0  0  0  0  0  0  0  0  0  0  0  0
    3.2954   -1.4672    0.0000 C   0  0  0  0  0  0  0  0  0  0  0  0
    4.7726   -1.2067    0.0000 C   0  0  0  0  0  0  0  0  0  0  0  0
    4.0903   -2.7393    0.0000 O   0  0  0  0  0  0  0  0  0  0  0  0
  1  2  1  0
  3  2  1  6
  3  4  1  0
  4  5  1  0
  5  6  2  0
  5  7  1  0
  7  8  1  1
  7  9  1  0
  9 10  1  6
 11 10  1  1
 11 12  1  0
 12 13  1  0
 13 14  1  6
 13 15  1  0
 15 16  1  0
 13 17  1  0
 17 18  1  6
 17 19  1  0
 19 20  1  0
 17 21  1  0
 21 22  1  6
 21 23  1  0
  9 24  1  0
 24 25  1  1
 24 26  1  0
 26 27  1  6
 28 27  1  1
 28 29  1  0
 29 30  1  0
 30 31  1  1
 30 32  1  0
 32 33  1  0
 33 34  1  1
 34 35  1  0
 34 36  1  0
 33 37  1  0
 37 38  1  6
 26 39  1  0
 39 40  1  6
 39 41  1  0
 39 42  1  0
 42 43  1  0
 43 44  1  6
 43 45  1  0
 45 46  1  0
 46 47  1  0
 47 48  1  1
 47 49  1  0
 49 50  1  6
 49 51  1  0
 51 52  1  6
 51 53  1  0
 51  3  1  0
 23 11  1  0
 37 28  1  0
M  END
>  <ChEMBL_IDs>  (365) 
CHEMBL301375

>  <target_organism>  (365) 
None

>  <target_molecule_pref_name>  (365) 
nan

>  <# Known Targets>  (365) 
nan

>  <Known Targets>  (365) 
nan

>  <smiles>  (365) 
CC[C@H]1OC(=O)[C@H](C)[C@@H](O[C@H]2C[C@@](C)(OC)[C@@](O)(CC)[C@H](C)O2)[C@H](C)[C@@H](O[C@@H]2O[C@H](C)C[C@H](N(C)C)[C@H]2O)[C@](C)(O)C[C@@H](C)CN[C@H](C)[C@@H](O)[C@]1(C)O

$$$$

     RDKit          2D

 53 55  0  0  0  0  0  0  0  0999 V2000
    5.6205   -1.2990    0.0000 C   0  0  0  0  0  0  0  0  0  0  0  0
    4.8705    0.0000    0.0000 C   0  0  0  0  0  0  0  0  0  0  0  0
    3.3705    0.0000    0.0000 C   0  0  0  0  0  0  0  0  0  0  0  0
    3.0367   -1.4624    0.0000 O   0  0  0  0  0  0  0  0  0  0  0  0
    2.1015   -2.6351    0.0000 C   0  0  0  0  0  0  0  0  0  0  0  0
    3.0367   -3.8079    0.0000 O   0  0  0  0  0  0  0  0  0  0  0  0
    0.7500   -3.2860    0.0000 C   0  0  0  0  0  0  0  0  0  0  0  0
    1.3600   -4.4903    0.0000 C   0  0  0  0  0  0  0  0  0  0  0  0
   -0.7500   -3.2860    0.0000 C   0  0  0  0  0  0  0  0  0  0  0  0
   -1.0838   -4.7484    0.0000 O   0  0  0  0  0  0  0  0  0  0  0  0
    0.0158   -5.7686    0.0000 C   0  0  0  0  0  0  0  0  0  0  0  0
   -0.3180   -7.2310    0.0000 C   0  0  0  0  0  0  0  0  0  0  0  0
    0.7816   -8.2513    0.0000 C   0  0  0  0  0  0  0  0  0  0  0  0
    1.4659   -9.5861    0.0000 C   0  0  0  0  0  0  0  0  0  0  0  0
   -0.4141   -9.1570    0.0000 O   0  0  0  0  0  0  0  0  0  0  0  0
   -0.2276  -10.6453    0.0000 C   0  0  0  0  0  0  0  0  0  0  0  0
    2.2150   -7.8091    0.0000 C   0  0  0  0  0  0  0  0  0  0  0  0
    3.3145   -8.8294    0.0000 O   0  0  0  0  0  0  0  0  0  0  0  0
    2.5487   -6.3467    0.0000 C   0  0  0  0  0  0  0  0  0  0  0  0
    3.9821   -5.9046    0.0000 C   0  0  0  0  0  0  0  0  0  0  0  0
    1.4492   -5.3265    0.0000 O   0  0  0  0  0  0  0  0  0  0  0  0
   -2.1015   -2.6351    0.0000 C   0  0  0  0  0  0  0  0  0  0  0  0
   -3.0367   -3.8079    0.0000 C   0  0  0  0  0  0  0  0  0  0  0  0
   -3.0367   -1.4624    0.0000 C   0  0  0  0  0  0  0  0  0  0  0  0
   -4.3881   -2.1132    0.0000 O   0  0  0  0  0  0  0  0  0  0  0  0
   -5.6275   -1.2682    0.0000 C   0  0  0  0  0  0  0  0  0  0  0  0
   -5.5154    0.2276    0.0000 O   0  0  0  0  0  0  0  0  0  0  0  0
   -6.7548    1.0725    0.0000 C   0  0  0  0  0  0  0  0  0  0  0  0
   -6.6427    2.5684    0.0000 C   0  0  0  0  0  0  0  0  0  0  0  0
   -8.1062    0.4217    0.0000 C   0  0  0  0  0  0  0  0  0  0  0  0
   -8.2183   -1.0741    0.0000 C   0  0  0  0  0  0  0  0  0  0  0  0
   -9.5698   -1.7249    0.0000 N   0  0  0  0  0  0  0  0  0  0  0  0
  -10.8091   -0.8799    0.0000 C   0  0  0  0  0  0  0  0  0  0  0  0
   -9.6819   -3.2207    0.0000 C   0  0  0  0  0  0  0  0  0  0  0  0
   -6.9790   -1.9191    0.0000 C   0  0  0  0  0  0  0  0  0  0  0  0
   -7.0910   -3.4149    0.0000 O   0  0  0  0  0  0  0  0  0  0  0  0
   -3.3705    0.0000    0.0000 C   0  0  0  0  0  0  0  0  0  0  0  0
   -4.6098   -0.8450    0.0000 C   0  0  0  0  0  0  0  0  0  0  0  0
   -4.6098    0.8450    0.0000 O   0  0  0  0  0  0  0  0  0  0  0  0
   -3.0367    1.4624    0.0000 C   0  0  0  0  0  0  0  0  0  0  0  0
   -2.1015    2.6351    0.0000 C   0  0  0  0  0  0  0  0  0  0  0  0
   -3.0367    3.8079    0.0000 C   0  0  0  0  0  0  0  0  0  0  0  0
   -0.7500    3.2860    0.0000 C   0  0  0  0  0  0  0  0  0  0  0  0
   -1.0838    4.7484    0.0000 N   0  0  0  0  0  0  0  0  0  0  0  0
    0.0158    5.7686    0.0000 C   0  0  0  0  0  0  0  0  0  0  0  0
   -2.5171    5.1905    0.0000 C   0  0  0  0  0  0  0  0  0  0  0  0
    0.7500    3.2860    0.0000 C   0  0  0  0  0  0  0  0  0  0  0  0
    1.0838    4.7484    0.0000 C   0  0  0  0  0  0  0  0  0  0  0  0
    2.1015    2.6351    0.0000 C   0  0  0  0  0  0  0  0  0  0  0  0
    3.0367    3.8079    0.0000 O   0  0  0  0  0  0  0  0  0  0  0  0
    3.0367    1.4624    0.0000 C   0  0  0  0  0  0  0  0  0  0  0  0
    3.7867    2.7614    0.0000 C   0  0  0  0  0  0  0  0  0  0  0  0
    4.5199    1.2388    0.0000 O   0  0  0  0  0  0  0  0  0  0  0  0
  1  2  1  0
  3  2  1  1
  3  4  1  0
  4  5  1  0
  5  6  2  0
  5  7  1  0
  7  8  1  6
  7  9  1  0
  9 10  1  1
 11 10  1  6
 11 12  1  0
 12 13  1  0
 13 14  1  1
 13 15  1  0
 15 16  1  0
 13 17  1  0
 17 18  1  6
 17 19  1  0
 19 20  1  1
 19 21  1  0
  9 22  1  0
 22 23  1  6
 22 24  1  0
 24 25  1  1
 26 25  1  1
 26 27  1  0
 27 28  1  0
 28 29  1  1
 28 30  1  0
 30 31  1  0
 31 32  1  1
 32 33  1  0
 32 34  1  0
 31 35  1  0
 35 36  1  6
 24 37  1  0
 37 38  1  6
 37 39  1  0
 37 40  1  0
 40 41  1  0
 41 42  1  1
 41 43  1  0
 43 44  1  1
 44 45  1  0
 44 46  1  0
 43 47  1  0
 47 48  1  6
 47 49  1  0
 49 50  1  1
 49 51  1  0
 51 52  1  1
 51 53  1  0
 51  3  1  0
 21 11  1  0
 35 26  1  0
M  END
>  <ChEMBL_IDs>  (366) 
nan

>  <target_organism>  (366) 
nan

>  <target_molecule_pref_name>  (366) 
nan

>  <# Known Targets>  (366) 
nan

>  <Known Targets>  (366) 
nan

>  <smiles>  (366) 
CC[C@H]1OC(=O)[C@H](C)[C@@H](O[C@H]2C[C@@](C)(OC)[C@@H](O)[C@H](C)O2)[C@H](C)[C@@H](O[C@@H]2O[C@H](C)C[C@H](N(C)C)[C@H]2O)[C@@](C)(O)C[C@@H](C)[C@@H](N(C)C)[C@H](C)[C@@H](O)[C@]1(C)O

$$$$

     RDKit          2D

 53 55  0  0  0  0  0  0  0  0999 V2000
    5.6205   -1.2990    0.0000 C   0  0  0  0  0  0  0  0  0  0  0  0
    4.8705    0.0000    0.0000 C   0  0  0  0  0  0  0  0  0  0  0  0
    3.3705    0.0000    0.0000 C   0  0  0  0  0  0  0  0  0  0  0  0
    3.0367   -1.4624    0.0000 O   0  0  0  0  0  0  0  0  0  0  0  0
    2.1015   -2.6351    0.0000 C   0  0  0  0  0  0  0  0  0  0  0  0
    3.0367   -3.8079    0.0000 O   0  0  0  0  0  0  0  0  0  0  0  0
    0.7500   -3.2860    0.0000 C   0  0  0  0  0  0  0  0  0  0  0  0
    1.3600   -4.4903    0.0000 C   0  0  0  0  0  0  0  0  0  0  0  0
   -0.7500   -3.2860    0.0000 C   0  0  0  0  0  0  0  0  0  0  0  0
   -1.0838   -4.7484    0.0000 O   0  0  0  0  0  0  0  0  0  0  0  0
    0.0158   -5.7686    0.0000 C   0  0  0  0  0  0  0  0  0  0  0  0
   -0.3180   -7.2310    0.0000 C   0  0  0  0  0  0  0  0  0  0  0  0
    0.7816   -8.2513    0.0000 C   0  0  0  0  0  0  0  0  0  0  0  0
    1.4659   -9.5861    0.0000 C   0  0  0  0  0  0  0  0  0  0  0  0
   -0.4141   -9.1570    0.0000 O   0  0  0  0  0  0  0  0  0  0  0  0
   -0.2276  -10.6453    0.0000 C   0  0  0  0  0  0  0  0  0  0  0  0
    2.2150   -7.8091    0.0000 C   0  0  0  0  0  0  0  0  0  0  0  0
    3.3145   -8.8294    0.0000 O   0  0  0  0  0  0  0  0  0  0  0  0
    2.5487   -6.3467    0.0000 C   0  0  0  0  0  0  0  0  0  0  0  0
    3.9821   -5.9046    0.0000 C   0  0  0  0  0  0  0  0  0  0  0  0
    1.4492   -5.3265    0.0000 O   0  0  0  0  0  0  0  0  0  0  0  0
   -2.1015   -2.6351    0.0000 C   0  0  0  0  0  0  0  0  0  0  0  0
   -3.0367   -3.8079    0.0000 C   0  0  0  0  0  0  0  0  0  0  0  0
   -3.0367   -1.4624    0.0000 C   0  0  0  0  0  0  0  0  0  0  0  0
   -4.3881   -2.1132    0.0000 O   0  0  0  0  0  0  0  0  0  0  0  0
   -5.6275   -1.2682    0.0000 C   0  0  0  0  0  0  0  0  0  0  0  0
   -5.5154    0.2276    0.0000 O   0  0  0  0  0  0  0  0  0  0  0  0
   -6.7548    1.0725    0.0000 C   0  0  0  0  0  0  0  0  0  0  0  0
   -6.6427    2.5684    0.0000 C   0  0  0  0  0  0  0  0  0  0  0  0
   -8.1062    0.4217    0.0000 C   0  0  0  0  0  0  0  0  0  0  0  0
   -8.2183   -1.0741    0.0000 C   0  0  0  0  0  0  0  0  0  0  0  0
   -9.5698   -1.7249    0.0000 N   0  0  0  0  0  0  0  0  0  0  0  0
  -10.8091   -0.8799    0.0000 C   0  0  0  0  0  0  0  0  0  0  0  0
   -9.6819   -3.2207    0.0000 C   0  0  0  0  0  0  0  0  0  0  0  0
   -6.9790   -1.9191    0.0000 C   0  0  0  0  0  0  0  0  0  0  0  0
   -7.0910   -3.4149    0.0000 O   0  0  0  0  0  0  0  0  0  0  0  0
   -3.3705    0.0000    0.0000 C   0  0  0  0  0  0  0  0  0  0  0  0
   -4.6098   -0.8450    0.0000 C   0  0  0  0  0  0  0  0  0  0  0  0
   -4.6098    0.8450    0.0000 O   0  0  0  0  0  0  0  0  0  0  0  0
   -3.0367    1.4624    0.0000 C   0  0  0  0  0  0  0  0  0  0  0  0
   -2.1015    2.6351    0.0000 C   0  0  0  0  0  0  0  0  0  0  0  0
   -3.0367    3.8079    0.0000 C   0  0  0  0  0  0  0  0  0  0  0  0
   -0.7500    3.2860    0.0000 C   0  0  0  0  0  0  0  0  0  0  0  0
   -1.0838    4.7484    0.0000 N   0  0  0  0  0  0  0  0  0  0  0  0
    0.0158    5.7686    0.0000 C   0  0  0  0  0  0  0  0  0  0  0  0
   -2.5171    5.1905    0.0000 C   0  0  0  0  0  0  0  0  0  0  0  0
    0.7500    3.2860    0.0000 C   0  0  0  0  0  0  0  0  0  0  0  0
    1.0838    4.7484    0.0000 C   0  0  0  0  0  0  0  0  0  0  0  0
    2.1015    2.6351    0.0000 C   0  0  0  0  0  0  0  0  0  0  0  0
    3.0367    3.8079    0.0000 O   0  0  0  0  0  0  0  0  0  0  0  0
    3.0367    1.4624    0.0000 C   0  0  0  0  0  0  0  0  0  0  0  0
    3.7867    2.7614    0.0000 C   0  0  0  0  0  0  0  0  0  0  0  0
    4.5199    1.2388    0.0000 O   0  0  0  0  0  0  0  0  0  0  0  0
  1  2  1  0
  3  2  1  1
  3  4  1  0
  4  5  1  0
  5  6  2  0
  5  7  1  0
  7  8  1  6
  7  9  1  0
  9 10  1  1
 10 11  1  0
 11 12  1  0
 12 13  1  0
 13 14  1  0
 13 15  1  0
 15 16  1  0
 13 17  1  0
 17 18  1  0
 17 19  1  0
 19 20  1  0
 19 21  1  0
  9 22  1  0
 22 23  1  6
 22 24  1  0
 24 25  1  1
 25 26  1  0
 26 27  1  0
 27 28  1  0
 28 29  1  0
 28 30  1  0
 30 31  1  0
 31 32  1  0
 32 33  1  0
 32 34  1  0
 31 35  1  0
 35 36  1  0
 24 37  1  0
 37 38  1  1
 37 39  1  0
 37 40  1  0
 40 41  1  0
 41 42  1  1
 41 43  1  0
 43 44  1  6
 44 45  1  0
 44 46  1  0
 43 47  1  0
 47 48  1  6
 47 49  1  0
 49 50  1  1
 49 51  1  0
 51 52  1  1
 51 53  1  0
 51  3  1  0
 21 11  1  0
 35 26  1  0
M  END
>  <ChEMBL_IDs>  (367) 
CHEMBL323018

>  <target_organism>  (367) 
None

>  <target_molecule_pref_name>  (367) 
nan

>  <# Known Targets>  (367) 
nan

>  <Known Targets>  (367) 
nan

>  <smiles>  (367) 
CC[C@H]1OC(=O)[C@H](C)[C@@H](OC2CC(C)(OC)C(O)C(C)O2)[C@H](C)[C@@H](OC2OC(C)CC(N(C)C)C2O)[C@](C)(O)C[C@@H](C)[C@H](N(C)C)[C@H](C)[C@@H](O)[C@]1(C)O

$$$$

     RDKit          2D

 53 55  0  0  0  0  0  0  0  0999 V2000
    5.8573   -1.2990    0.0000 C   0  0  0  0  0  0  0  0  0  0  0  0
    5.1073    0.0000    0.0000 C   0  0  0  0  0  0  0  0  0  0  0  0
    3.6073    0.0000    0.0000 C   0  0  0  0  0  0  0  0  0  0  0  0
    3.2954    1.4672    0.0000 O   0  0  0  0  0  0  0  0  0  0  0  0
    2.4138    2.6807    0.0000 C   0  0  0  0  0  0  0  0  0  0  0  0
    3.4175    3.7955    0.0000 O   0  0  0  0  0  0  0  0  0  0  0  0
    1.1147    3.4307    0.0000 C   0  0  0  0  0  0  0  0  0  0  0  0
    1.8302    4.5756    0.0000 C   0  0  0  0  0  0  0  0  0  0  0  0
   -0.3771    3.5875    0.0000 C   0  0  0  0  0  0  0  0  0  0  0  0
   -0.5339    5.0793    0.0000 O   0  0  0  0  0  0  0  0  0  0  0  0
    0.6797    5.9610    0.0000 C   0  0  0  0  0  0  0  0  0  0  0  0
    0.5229    7.4528    0.0000 C   0  0  0  0  0  0  0  0  0  0  0  0
    1.7364    8.3345    0.0000 C   0  0  0  0  0  0  0  0  0  0  0  0
    2.5752    9.5780    0.0000 C   0  0  0  0  0  0  0  0  0  0  0  0
    0.6574    9.3764    0.0000 O   0  0  0  0  0  0  0  0  0  0  0  0
    1.0203   10.8319    0.0000 C   0  0  0  0  0  0  0  0  0  0  0  0
    3.1067    7.7244    0.0000 C   0  0  0  0  0  0  0  0  0  0  0  0
    4.6031    7.6197    0.0000 C   0  0  0  0  0  0  0  0  0  0  0  0
    3.4696    9.1798    0.0000 O   0  0  0  0  0  0  0  0  0  0  0  0
    3.2635    6.2326    0.0000 C   0  0  0  0  0  0  0  0  0  0  0  0
    4.6338    5.6225    0.0000 C   0  0  0  0  0  0  0  0  0  0  0  0
    2.0500    5.3509    0.0000 O   0  0  0  0  0  0  0  0  0  0  0  0
   -1.8037    3.1240    0.0000 C   0  0  0  0  0  0  0  0  0  0  0  0
   -2.5537    4.4231    0.0000 C   0  0  0  0  0  0  0  0  0  0  0  0
   -2.9184    2.1203    0.0000 C   0  0  0  0  0  0  0  0  0  0  0  0
   -4.1319    3.0020    0.0000 O   0  0  0  0  0  0  0  0  0  0  0  0
   -5.5022    2.3919    0.0000 C   0  0  0  0  0  0  0  0  0  0  0  0
   -6.7157    3.2736    0.0000 O   0  0  0  0  0  0  0  0  0  0  0  0
   -8.0861    2.6635    0.0000 C   0  0  0  0  0  0  0  0  0  0  0  0
   -9.2996    3.5451    0.0000 C   0  0  0  0  0  0  0  0  0  0  0  0
   -8.2428    1.1717    0.0000 C   0  0  0  0  0  0  0  0  0  0  0  0
   -7.0293    0.2900    0.0000 C   0  0  0  0  0  0  0  0  0  0  0  0
   -7.1861   -1.2018    0.0000 N   0  0  0  0  0  0  0  0  0  0  0  0
   -8.5564   -1.8119    0.0000 C   0  0  0  0  0  0  0  0  0  0  0  0
   -5.9726   -2.0835    0.0000 C   0  0  0  0  0  0  0  0  0  0  0  0
   -5.6590    0.9001    0.0000 C   0  0  0  0  0  0  0  0  0  0  0  0
   -5.0760    0.3564    0.0000 O   0  0  0  0  0  0  0  0  0  0  0  0
   -3.5285    0.7500    0.0000 C   0  0  0  0  0  0  0  0  0  0  0  0
   -4.2257    0.3635    0.0000 C   0  0  0  0  0  0  0  0  0  0  0  0
   -4.5705    1.8290    0.0000 O   0  0  0  0  0  0  0  0  0  0  0  0
   -3.5285   -0.7500    0.0000 C   0  0  0  0  0  0  0  0  0  0  0  0
   -2.9184   -2.1203    0.0000 C   0  0  0  0  0  0  0  0  0  0  0  0
   -4.1319   -3.0020    0.0000 C   0  0  0  0  0  0  0  0  0  0  0  0
   -1.8037   -3.1240    0.0000 C   0  0  0  0  0  0  0  0  0  0  0  0
   -0.3771   -3.5875    0.0000 N   0  0  0  0  0  0  0  0  0  0  0  0
   -0.5339   -5.0793    0.0000 C   0  0  0  0  0  0  0  0  0  0  0  0
    1.1147   -3.4307    0.0000 C   0  0  0  0  0  0  0  0  0  0  0  0
    1.5782   -4.8573    0.0000 C   0  0  0  0  0  0  0  0  0  0  0  0
    2.4138   -2.6807    0.0000 C   0  0  0  0  0  0  0  0  0  0  0  0
    3.4175   -3.7955    0.0000 O   0  0  0  0  0  0  0  0  0  0  0  0
    3.2954   -1.4672    0.0000 C   0  0  0  0  0  0  0  0  0  0  0  0
    4.7726   -1.2067    0.0000 C   0  0  0  0  0  0  0  0  0  0  0  0
    4.0903   -2.7393    0.0000 O   0  0  0  0  0  0  0  0  0  0  0  0
  1  2  1  0
  3  2  1  6
  3  4  1  0
  4  5  1  0
  5  6  2  0
  5  7  1  0
  7  8  1  1
  7  9  1  0
  9 10  1  6
 11 10  1  1
 11 12  1  0
 12 13  1  0
 13 14  1  6
 13 15  1  0
 15 16  1  0
 13 17  1  0
 17 18  1  1
 17 19  1  0
 17 20  1  0
 20 21  1  6
 20 22  1  0
  9 23  1  0
 23 24  1  1
 23 25  1  0
 25 26  1  6
 27 26  1  1
 27 28  1  0
 28 29  1  0
 29 30  1  1
 29 31  1  0
 31 32  1  0
 32 33  1  1
 33 34  1  0
 33 35  1  0
 32 36  1  0
 36 37  1  6
 25 38  1  0
 38 39  1  6
 38 40  1  0
 38 41  1  0
 41 42  1  0
 42 43  1  6
 42 44  1  0
 44 45  1  0
 45 46  1  0
 45 47  1  0
 47 48  1  1
 47 49  1  0
 49 50  1  6
 49 51  1  0
 51 52  1  6
 51 53  1  0
 51  3  1  0
 22 11  1  0
 36 27  1  0
M  END
>  <ChEMBL_IDs>  (368) 
CHEMBL61361

>  <target_organism>  (368) 
Rattus norvegicus

>  <target_molecule_pref_name>  (368) 
nan

>  <# Known Targets>  (368) 
nan

>  <Known Targets>  (368) 
nan

>  <smiles>  (368) 
CC[C@H]1OC(=O)[C@H](C)[C@@H](O[C@H]2C[C@@](C)(OC)[C@](C)(O)[C@H](C)O2)[C@H](C)[C@@H](O[C@@H]2O[C@H](C)C[C@H](N(C)C)[C@H]2O)[C@](C)(O)C[C@@H](C)CN(C)[C@H](C)[C@@H](O)[C@]1(C)O

$$$$

     RDKit          2D

 53 55  0  0  0  0  0  0  0  0999 V2000
    5.8573   -1.2990    0.0000 C   0  0  0  0  0  0  0  0  0  0  0  0
    5.1073    0.0000    0.0000 C   0  0  0  0  0  0  0  0  0  0  0  0
    3.6073    0.0000    0.0000 C   0  0  0  0  0  0  0  0  0  0  0  0
    3.2954    1.4672    0.0000 O   0  0  0  0  0  0  0  0  0  0  0  0
    2.4138    2.6807    0.0000 C   0  0  0  0  0  0  0  0  0  0  0  0
    3.4175    3.7955    0.0000 O   0  0  0  0  0  0  0  0  0  0  0  0
    1.1147    3.4307    0.0000 C   0  0  0  0  0  0  0  0  0  0  0  0
    1.8302    4.5756    0.0000 C   0  0  0  0  0  0  0  0  0  0  0  0
   -0.3771    3.5875    0.0000 C   0  0  0  0  0  0  0  0  0  0  0  0
   -0.5339    5.0793    0.0000 O   0  0  0  0  0  0  0  0  0  0  0  0
    0.6797    5.9610    0.0000 C   0  0  0  0  0  0  0  0  0  0  0  0
    0.5229    7.4528    0.0000 C   0  0  0  0  0  0  0  0  0  0  0  0
    1.7364    8.3345    0.0000 C   0  0  0  0  0  0  0  0  0  0  0  0
    2.5752    9.5780    0.0000 C   0  0  0  0  0  0  0  0  0  0  0  0
    0.6574    9.3764    0.0000 O   0  0  0  0  0  0  0  0  0  0  0  0
    1.0203   10.8319    0.0000 C   0  0  0  0  0  0  0  0  0  0  0  0
    3.1067    7.7244    0.0000 C   0  0  0  0  0  0  0  0  0  0  0  0
    4.3202    8.6060    0.0000 O   0  0  0  0  0  0  0  0  0  0  0  0
    5.6906    7.9959    0.0000 C   0  0  0  0  0  0  0  0  0  0  0  0
    3.2635    6.2326    0.0000 C   0  0  0  0  0  0  0  0  0  0  0  0
    4.6338    5.6225    0.0000 C   0  0  0  0  0  0  0  0  0  0  0  0
    2.0500    5.3509    0.0000 O   0  0  0  0  0  0  0  0  0  0  0  0
   -1.8037    3.1240    0.0000 C   0  0  0  0  0  0  0  0  0  0  0  0
   -2.5537    4.4231    0.0000 C   0  0  0  0  0  0  0  0  0  0  0  0
   -2.9184    2.1203    0.0000 C   0  0  0  0  0  0  0  0  0  0  0  0
   -4.1319    3.0020    0.0000 O   0  0  0  0  0  0  0  0  0  0  0  0
   -5.5022    2.3919    0.0000 C   0  0  0  0  0  0  0  0  0  0  0  0
   -6.7157    3.2736    0.0000 O   0  0  0  0  0  0  0  0  0  0  0  0
   -8.0861    2.6635    0.0000 C   0  0  0  0  0  0  0  0  0  0  0  0
   -9.2996    3.5451    0.0000 C   0  0  0  0  0  0  0  0  0  0  0  0
   -8.2428    1.1717    0.0000 C   0  0  0  0  0  0  0  0  0  0  0  0
   -7.0293    0.2900    0.0000 C   0  0  0  0  0  0  0  0  0  0  0  0
   -7.1861   -1.2018    0.0000 N   0  0  0  0  0  0  0  0  0  0  0  0
   -8.5564   -1.8119    0.0000 C   0  0  0  0  0  0  0  0  0  0  0  0
   -5.9726   -2.0835    0.0000 C   0  0  0  0  0  0  0  0  0  0  0  0
   -5.6590    0.9001    0.0000 C   0  0  0  0  0  0  0  0  0  0  0  0
   -5.0760    0.3564    0.0000 O   0  0  0  0  0  0  0  0  0  0  0  0
   -3.5285    0.7500    0.0000 C   0  0  0  0  0  0  0  0  0  0  0  0
   -4.2257    0.3635    0.0000 C   0  0  0  0  0  0  0  0  0  0  0  0
   -4.5705    1.8290    0.0000 O   0  0  0  0  0  0  0  0  0  0  0  0
   -3.5285   -0.7500    0.0000 C   0  0  0  0  0  0  0  0  0  0  0  0
   -2.9184   -2.1203    0.0000 C   0  0  0  0  0  0  0  0  0  0  0  0
   -4.1319   -3.0020    0.0000 C   0  0  0  0  0  0  0  0  0  0  0  0
   -1.8037   -3.1240    0.0000 N   0  0  0  0  0  0  0  0  0  0  0  0
   -2.5537   -4.4231    0.0000 C   0  0  0  0  0  0  0  0  0  0  0  0
   -0.3771   -3.5875    0.0000 C   0  0  0  0  0  0  0  0  0  0  0  0
    1.1147   -3.4307    0.0000 C   0  0  0  0  0  0  0  0  0  0  0  0
    1.5782   -4.8573    0.0000 C   0  0  0  0  0  0  0  0  0  0  0  0
    2.4138   -2.6807    0.0000 C   0  0  0  0  0  0  0  0  0  0  0  0
    3.4175   -3.7955    0.0000 O   0  0  0  0  0  0  0  0  0  0  0  0
    3.2954   -1.4672    0.0000 C   0  0  0  0  0  0  0  0  0  0  0  0
    4.7726   -1.2067    0.0000 C   0  0  0  0  0  0  0  0  0  0  0  0
    4.0903   -2.7393    0.0000 O   0  0  0  0  0  0  0  0  0  0  0  0
  1  2  1  0
  3  2  1  6
  3  4  1  0
  4  5  1  0
  5  6  2  0
  5  7  1  0
  7  8  1  1
  7  9  1  0
  9 10  1  6
 11 10  1  1
 11 12  1  0
 12 13  1  0
 13 14  1  6
 13 15  1  0
 15 16  1  0
 13 17  1  0
 17 18  1  1
 18 19  1  0
 17 20  1  0
 20 21  1  1
 20 22  1  0
  9 23  1  0
 23 24  1  1
 23 25  1  0
 25 26  1  6
 27 26  1  1
 27 28  1  0
 28 29  1  0
 29 30  1  1
 29 31  1  0
 31 32  1  0
 32 33  1  6
 33 34  1  0
 33 35  1  0
 32 36  1  0
 36 37  1  6
 25 38  1  0
 38 39  1  6
 38 40  1  0
 38 41  1  0
 41 42  1  0
 42 43  1  6
 42 44  1  0
 44 45  1  0
 44 46  1  0
 46 47  1  0
 47 48  1  1
 47 49  1  0
 49 50  1  6
 49 51  1  0
 51 52  1  6
 51 53  1  0
 51  3  1  0
 22 11  1  0
 36 27  1  0
M  END
>  <ChEMBL_IDs>  (369) 
CHEMBL2368177

>  <target_organism>  (369) 
Homo sapiens

>  <target_molecule_pref_name>  (369) 
nan

>  <# Known Targets>  (369) 
nan

>  <Known Targets>  (369) 
nan

>  <smiles>  (369) 
CC[C@H]1OC(=O)[C@H](C)[C@@H](O[C@H]2C[C@@](C)(OC)[C@@H](OC)[C@@H](C)O2)[C@H](C)[C@@H](O[C@@H]2O[C@H](C)C[C@@H](N(C)C)[C@H]2O)[C@](C)(O)C[C@@H](C)N(C)C[C@H](C)[C@@H](O)[C@]1(C)O

$$$$

     RDKit          2D

 53 55  0  0  0  0  0  0  0  0999 V2000
    5.8573   -1.2990    0.0000 C   0  0  0  0  0  0  0  0  0  0  0  0
    5.1073    0.0000    0.0000 C   0  0  0  0  0  0  0  0  0  0  0  0
    3.6073    0.0000    0.0000 C   0  0  0  0  0  0  0  0  0  0  0  0
    3.2954    1.4672    0.0000 O   0  0  0  0  0  0  0  0  0  0  0  0
    2.4138    2.6807    0.0000 C   0  0  0  0  0  0  0  0  0  0  0  0
    3.4175    3.7955    0.0000 O   0  0  0  0  0  0  0  0  0  0  0  0
    1.1147    3.4307    0.0000 C   0  0  0  0  0  0  0  0  0  0  0  0
    1.8302    4.5756    0.0000 C   0  0  0  0  0  0  0  0  0  0  0  0
   -0.3771    3.5875    0.0000 C   0  0  0  0  0  0  0  0  0  0  0  0
   -0.5339    5.0793    0.0000 O   0  0  0  0  0  0  0  0  0  0  0  0
    0.6797    5.9610    0.0000 C   0  0  0  0  0  0  0  0  0  0  0  0
    0.5229    7.4528    0.0000 C   0  0  0  0  0  0  0  0  0  0  0  0
    1.7364    8.3345    0.0000 C   0  0  0  0  0  0  0  0  0  0  0  0
    2.5752    9.5780    0.0000 C   0  0  0  0  0  0  0  0  0  0  0  0
    0.6574    9.3764    0.0000 O   0  0  0  0  0  0  0  0  0  0  0  0
    1.0203   10.8319    0.0000 C   0  0  0  0  0  0  0  0  0  0  0  0
    3.1067    7.7244    0.0000 C   0  0  0  0  0  0  0  0  0  0  0  0
    4.3202    8.6060    0.0000 O   0  0  0  0  0  0  0  0  0  0  0  0
    3.2635    6.2326    0.0000 C   0  0  0  0  0  0  0  0  0  0  0  0
    4.6338    5.6225    0.0000 C   0  0  0  0  0  0  0  0  0  0  0  0
    2.0500    5.3509    0.0000 O   0  0  0  0  0  0  0  0  0  0  0  0
   -1.8037    3.1240    0.0000 C   0  0  0  0  0  0  0  0  0  0  0  0
   -2.5537    4.4231    0.0000 C   0  0  0  0  0  0  0  0  0  0  0  0
   -2.9184    2.1203    0.0000 C   0  0  0  0  0  0  0  0  0  0  0  0
   -4.1319    3.0020    0.0000 O   0  0  0  0  0  0  0  0  0  0  0  0
   -5.5022    2.3919    0.0000 C   0  0  0  0  0  0  0  0  0  0  0  0
   -6.7157    3.2736    0.0000 O   0  0  0  0  0  0  0  0  0  0  0  0
   -8.0861    2.6635    0.0000 C   0  0  0  0  0  0  0  0  0  0  0  0
   -9.2996    3.5451    0.0000 C   0  0  0  0  0  0  0  0  0  0  0  0
   -8.2428    1.1717    0.0000 C   0  0  0  0  0  0  0  0  0  0  0  0
   -7.0293    0.2900    0.0000 C   0  0  0  0  0  0  0  0  0  0  0  0
   -7.1861   -1.2018    0.0000 N   0  0  0  0  0  0  0  0  0  0  0  0
   -8.5564   -1.8119    0.0000 C   0  0  0  0  0  0  0  0  0  0  0  0
   -5.9726   -2.0835    0.0000 C   0  0  0  0  0  0  0  0  0  0  0  0
   -5.6590    0.9001    0.0000 C   0  0  0  0  0  0  0  0  0  0  0  0
   -5.0760    0.3564    0.0000 O   0  0  0  0  0  0  0  0  0  0  0  0
   -3.5285    0.7500    0.0000 C   0  0  0  0  0  0  0  0  0  0  0  0
   -4.2257    0.3635    0.0000 C   0  0  0  0  0  0  0  0  0  0  0  0
   -4.5705    1.8290    0.0000 O   0  0  0  0  0  0  0  0  0  0  0  0
   -5.8948    1.1247    0.0000 C   0  0  0  0  0  0  0  0  0  0  0  0
   -3.5285   -0.7500    0.0000 C   0  0  0  0  0  0  0  0  0  0  0  0
   -2.9184   -2.1203    0.0000 C   0  0  0  0  0  0  0  0  0  0  0  0
   -4.1319   -3.0020    0.0000 C   0  0  0  0  0  0  0  0  0  0  0  0
   -1.8037   -3.1240    0.0000 N   0  0  0  0  0  0  0  0  0  0  0  0
   -2.5537   -4.4231    0.0000 C   0  0  0  0  0  0  0  0  0  0  0  0
   -0.3771   -3.5875    0.0000 C   0  0  0  0  0  0  0  0  0  0  0  0
    1.1147   -3.4307    0.0000 C   0  0  0  0  0  0  0  0  0  0  0  0
    1.5782   -4.8573    0.0000 C   0  0  0  0  0  0  0  0  0  0  0  0
    2.4138   -2.6807    0.0000 C   0  0  0  0  0  0  0  0  0  0  0  0
    3.4175   -3.7955    0.0000 O   0  0  0  0  0  0  0  0  0  0  0  0
    3.2954   -1.4672    0.0000 C   0  0  0  0  0  0  0  0  0  0  0  0
    4.7726   -1.2067    0.0000 C   0  0  0  0  0  0  0  0  0  0  0  0
    4.0903   -2.7393    0.0000 O   0  0  0  0  0  0  0  0  0  0  0  0
  1  2  1  0
  3  2  1  6
  3  4  1  0
  4  5  1  0
  5  6  2  0
  5  7  1  0
  7  8  1  1
  7  9  1  0
  9 10  1  6
 11 10  1  1
 11 12  1  0
 12 13  1  0
 13 14  1  6
 13 15  1  0
 15 16  1  0
 13 17  1  0
 17 18  1  1
 17 19  1  0
 19 20  1  1
 19 21  1  0
  9 22  1  0
 22 23  1  1
 22 24  1  0
 24 25  1  6
 26 25  1  1
 26 27  1  0
 27 28  1  0
 28 29  1  1
 28 30  1  0
 30 31  1  0
 31 32  1  6
 32 33  1  0
 32 34  1  0
 31 35  1  0
 35 36  1  6
 24 37  1  0
 37 38  1  6
 37 39  1  0
 39 40  1  0
 37 41  1  0
 41 42  1  0
 42 43  1  6
 42 44  1  0
 44 45  1  0
 44 46  1  0
 46 47  1  0
 47 48  1  1
 47 49  1  0
 49 50  1  6
 49 51  1  0
 51 52  1  6
 51 53  1  0
 51  3  1  0
 21 11  1  0
 35 26  1  0
M  END
>  <ChEMBL_IDs>  (370) 
CHEMBL3038221

>  <target_organism>  (370) 
None

>  <target_molecule_pref_name>  (370) 
nan

>  <# Known Targets>  (370) 
nan

>  <Known Targets>  (370) 
nan

>  <smiles>  (370) 
CC[C@H]1OC(=O)[C@H](C)[C@@H](O[C@H]2C[C@@](C)(OC)[C@@H](O)[C@@H](C)O2)[C@H](C)[C@@H](O[C@@H]2O[C@H](C)C[C@@H](N(C)C)[C@H]2O)[C@](C)(OC)C[C@@H](C)N(C)C[C@H](C)[C@@H](O)[C@]1(C)O

$$$$

     RDKit          2D

 53 55  0  0  0  0  0  0  0  0999 V2000
    5.8573   -1.2990    0.0000 C   0  0  0  0  0  0  0  0  0  0  0  0
    5.1073    0.0000    0.0000 C   0  0  0  0  0  0  0  0  0  0  0  0
    3.6073    0.0000    0.0000 C   0  0  0  0  0  0  0  0  0  0  0  0
    3.2954    1.4672    0.0000 O   0  0  0  0  0  0  0  0  0  0  0  0
    2.4138    2.6807    0.0000 C   0  0  0  0  0  0  0  0  0  0  0  0
    3.4175    3.7955    0.0000 O   0  0  0  0  0  0  0  0  0  0  0  0
    1.1147    3.4307    0.0000 C   0  0  0  0  0  0  0  0  0  0  0  0
    1.8302    4.5756    0.0000 C   0  0  0  0  0  0  0  0  0  0  0  0
   -0.3771    3.5875    0.0000 C   0  0  0  0  0  0  0  0  0  0  0  0
   -0.5339    5.0793    0.0000 O   0  0  0  0  0  0  0  0  0  0  0  0
    0.6797    5.9610    0.0000 C   0  0  0  0  0  0  0  0  0  0  0  0
    0.5229    7.4528    0.0000 C   0  0  0  0  0  0  0  0  0  0  0  0
    1.7364    8.3345    0.0000 C   0  0  0  0  0  0  0  0  0  0  0  0
    2.5752    9.5780    0.0000 C   0  0  0  0  0  0  0  0  0  0  0  0
    0.6574    9.3764    0.0000 O   0  0  0  0  0  0  0  0  0  0  0  0
    1.0203   10.8319    0.0000 C   0  0  0  0  0  0  0  0  0  0  0  0
    3.1067    7.7244    0.0000 C   0  0  0  0  0  0  0  0  0  0  0  0
    4.3202    8.6060    0.0000 O   0  0  0  0  0  0  0  0  0  0  0  0
    3.2635    6.2326    0.0000 C   0  0  0  0  0  0  0  0  0  0  0  0
    4.6338    5.6225    0.0000 C   0  0  0  0  0  0  0  0  0  0  0  0
    2.0500    5.3509    0.0000 O   0  0  0  0  0  0  0  0  0  0  0  0
   -1.8037    3.1240    0.0000 C   0  0  0  0  0  0  0  0  0  0  0  0
   -2.5537    4.4231    0.0000 C   0  0  0  0  0  0  0  0  0  0  0  0
   -2.9184    2.1203    0.0000 C   0  0  0  0  0  0  0  0  0  0  0  0
   -4.1319    3.0020    0.0000 O   0  0  0  0  0  0  0  0  0  0  0  0
   -5.5022    2.3919    0.0000 C   0  0  0  0  0  0  0  0  0  0  0  0
   -6.7157    3.2736    0.0000 O   0  0  0  0  0  0  0  0  0  0  0  0
   -8.0861    2.6635    0.0000 C   0  0  0  0  0  0  0  0  0  0  0  0
   -9.2996    3.5451    0.0000 C   0  0  0  0  0  0  0  0  0  0  0  0
   -8.2428    1.1717    0.0000 C   0  0  0  0  0  0  0  0  0  0  0  0
   -7.0293    0.2900    0.0000 C   0  0  0  0  0  0  0  0  0  0  0  0
   -7.1861   -1.2018    0.0000 N   0  0  0  0  0  0  0  0  0  0  0  0
   -8.5564   -1.8119    0.0000 C   0  0  0  0  0  0  0  0  0  0  0  0
   -5.9726   -2.0835    0.0000 C   0  0  0  0  0  0  0  0  0  0  0  0
   -5.6590    0.9001    0.0000 C   0  0  0  0  0  0  0  0  0  0  0  0
   -5.0760    0.3564    0.0000 O   0  0  0  0  0  0  0  0  0  0  0  0
   -3.5285    0.7500    0.0000 C   0  0  0  0  0  0  0  0  0  0  0  0
   -4.2257    0.3635    0.0000 C   0  0  0  0  0  0  0  0  0  0  0  0
   -4.5705    1.8290    0.0000 O   0  0  0  0  0  0  0  0  0  0  0  0
   -5.8948    1.1247    0.0000 C   0  0  0  0  0  0  0  0  0  0  0  0
   -3.5285   -0.7500    0.0000 C   0  0  0  0  0  0  0  0  0  0  0  0
   -2.9184   -2.1203    0.0000 C   0  0  0  0  0  0  0  0  0  0  0  0
   -4.1319   -3.0020    0.0000 C   0  0  0  0  0  0  0  0  0  0  0  0
   -1.8037   -3.1240    0.0000 C   0  0  0  0  0  0  0  0  0  0  0  0
   -0.3771   -3.5875    0.0000 N   0  0  0  0  0  0  0  0  0  0  0  0
   -0.5339   -5.0793    0.0000 C   0  0  0  0  0  0  0  0  0  0  0  0
    1.1147   -3.4307    0.0000 C   0  0  0  0  0  0  0  0  0  0  0  0
    1.5782   -4.8573    0.0000 C   0  0  0  0  0  0  0  0  0  0  0  0
    2.4138   -2.6807    0.0000 C   0  0  0  0  0  0  0  0  0  0  0  0
    3.4175   -3.7955    0.0000 O   0  0  0  0  0  0  0  0  0  0  0  0
    3.2954   -1.4672    0.0000 C   0  0  0  0  0  0  0  0  0  0  0  0
    4.7726   -1.2067    0.0000 C   0  0  0  0  0  0  0  0  0  0  0  0
    4.0903   -2.7393    0.0000 O   0  0  0  0  0  0  0  0  0  0  0  0
  1  2  1  0
  3  2  1  6
  3  4  1  0
  4  5  1  0
  5  6  2  0
  5  7  1  0
  7  8  1  1
  7  9  1  0
  9 10  1  6
 11 10  1  1
 11 12  1  0
 12 13  1  0
 13 14  1  6
 13 15  1  0
 15 16  1  0
 13 17  1  0
 17 18  1  1
 17 19  1  0
 19 20  1  1
 19 21  1  0
  9 22  1  0
 22 23  1  1
 22 24  1  0
 24 25  1  6
 26 25  1  1
 26 27  1  0
 27 28  1  0
 28 29  1  1
 28 30  1  0
 30 31  1  0
 31 32  1  6
 32 33  1  0
 32 34  1  0
 31 35  1  0
 35 36  1  6
 24 37  1  0
 37 38  1  6
 37 39  1  0
 39 40  1  0
 37 41  1  0
 41 42  1  0
 42 43  1  6
 42 44  1  0
 44 45  1  0
 45 46  1  0
 45 47  1  0
 47 48  1  1
 47 49  1  0
 49 50  1  6
 49 51  1  0
 51 52  1  6
 51 53  1  0
 51  3  1  0
 21 11  1  0
 35 26  1  0
M  END
>  <ChEMBL_IDs>  (371) 
CHEMBL3038222

>  <target_organism>  (371) 
None

>  <target_molecule_pref_name>  (371) 
nan

>  <# Known Targets>  (371) 
nan

>  <Known Targets>  (371) 
nan

>  <smiles>  (371) 
CC[C@H]1OC(=O)[C@H](C)[C@@H](O[C@H]2C[C@@](C)(OC)[C@@H](O)[C@@H](C)O2)[C@H](C)[C@@H](O[C@@H]2O[C@H](C)C[C@@H](N(C)C)[C@H]2O)[C@](C)(OC)C[C@@H](C)CN(C)[C@H](C)[C@@H](O)[C@]1(C)O

$$$$

     RDKit          2D

 53 55  0  0  0  0  0  0  0  0999 V2000
    5.8573   -1.2990    0.0000 C   0  0  0  0  0  0  0  0  0  0  0  0
    5.1073    0.0000    0.0000 C   0  0  0  0  0  0  0  0  0  0  0  0
    3.6073    0.0000    0.0000 C   0  0  0  0  0  0  0  0  0  0  0  0
    3.2954    1.4672    0.0000 O   0  0  0  0  0  0  0  0  0  0  0  0
    2.4138    2.6807    0.0000 C   0  0  0  0  0  0  0  0  0  0  0  0
    3.4175    3.7955    0.0000 O   0  0  0  0  0  0  0  0  0  0  0  0
    1.1147    3.4307    0.0000 C   0  0  0  0  0  0  0  0  0  0  0  0
    1.8302    4.5756    0.0000 C   0  0  0  0  0  0  0  0  0  0  0  0
   -0.3771    3.5875    0.0000 C   0  0  0  0  0  0  0  0  0  0  0  0
   -0.5339    5.0793    0.0000 O   0  0  0  0  0  0  0  0  0  0  0  0
    0.6797    5.9610    0.0000 C   0  0  0  0  0  0  0  0  0  0  0  0
    0.5229    7.4528    0.0000 C   0  0  0  0  0  0  0  0  0  0  0  0
    1.7364    8.3345    0.0000 C   0  0  0  0  0  0  0  0  0  0  0  0
    2.5752    9.5780    0.0000 C   0  0  0  0  0  0  0  0  0  0  0  0
    0.6574    9.3764    0.0000 O   0  0  0  0  0  0  0  0  0  0  0  0
    1.0203   10.8319    0.0000 C   0  0  0  0  0  0  0  0  0  0  0  0
    3.1067    7.7244    0.0000 C   0  0  0  0  0  0  0  0  0  0  0  0
    4.3202    8.6060    0.0000 O   0  0  0  0  0  0  0  0  0  0  0  0
    3.2635    6.2326    0.0000 C   0  0  0  0  0  0  0  0  0  0  0  0
    4.6338    5.6225    0.0000 C   0  0  0  0  0  0  0  0  0  0  0  0
    2.0500    5.3509    0.0000 O   0  0  0  0  0  0  0  0  0  0  0  0
   -1.8037    3.1240    0.0000 C   0  0  0  0  0  0  0  0  0  0  0  0
   -2.5537    4.4231    0.0000 C   0  0  0  0  0  0  0  0  0  0  0  0
   -2.9184    2.1203    0.0000 C   0  0  0  0  0  0  0  0  0  0  0  0
   -4.1319    3.0020    0.0000 O   0  0  0  0  0  0  0  0  0  0  0  0
   -5.5022    2.3919    0.0000 C   0  0  0  0  0  0  0  0  0  0  0  0
   -6.7157    3.2736    0.0000 O   0  0  0  0  0  0  0  0  0  0  0  0
   -8.0861    2.6635    0.0000 C   0  0  0  0  0  0  0  0  0  0  0  0
   -9.2996    3.5451    0.0000 C   0  0  0  0  0  0  0  0  0  0  0  0
   -8.2428    1.1717    0.0000 C   0  0  0  0  0  0  0  0  0  0  0  0
   -7.0293    0.2900    0.0000 C   0  0  0  0  0  0  0  0  0  0  0  0
   -7.1861   -1.2018    0.0000 N   0  0  0  0  0  0  0  0  0  0  0  0
   -8.5564   -1.8119    0.0000 C   0  0  0  0  0  0  0  0  0  0  0  0
   -5.9726   -2.0835    0.0000 C   0  0  0  0  0  0  0  0  0  0  0  0
   -5.6590    0.9001    0.0000 C   0  0  0  0  0  0  0  0  0  0  0  0
   -5.0760    0.3564    0.0000 O   0  0  0  0  0  0  0  0  0  0  0  0
   -3.5285    0.7500    0.0000 C   0  0  0  0  0  0  0  0  0  0  0  0
   -4.2257    0.3635    0.0000 C   0  0  0  0  0  0  0  0  0  0  0  0
   -4.5705    1.8290    0.0000 O   0  0  0  0  0  0  0  0  0  0  0  0
   -3.5285   -0.7500    0.0000 C   0  0  0  0  0  0  0  0  0  0  0  0
   -2.9184   -2.1203    0.0000 C   0  0  0  0  0  0  0  0  0  0  0  0
   -4.1319   -3.0020    0.0000 C   0  0  0  0  0  0  0  0  0  0  0  0
   -1.8037   -3.1240    0.0000 C   0  0  0  0  0  0  0  0  0  0  0  0
   -0.3771   -3.5875    0.0000 N   0  0  0  0  0  0  0  0  0  0  0  0
   -0.5339   -5.0793    0.0000 C   0  0  0  0  0  0  0  0  0  0  0  0
    1.1147   -3.4307    0.0000 C   0  0  0  0  0  0  0  0  0  0  0  0
    1.5782   -4.8573    0.0000 C   0  0  0  0  0  0  0  0  0  0  0  0
    2.4138   -2.6807    0.0000 C   0  0  0  0  0  0  0  0  0  0  0  0
    3.4175   -3.7955    0.0000 O   0  0  0  0  0  0  0  0  0  0  0  0
    4.8847   -3.4836    0.0000 C   0  0  0  0  0  0  0  0  0  0  0  0
    3.2954   -1.4672    0.0000 C   0  0  0  0  0  0  0  0  0  0  0  0
    4.7726   -1.2067    0.0000 C   0  0  0  0  0  0  0  0  0  0  0  0
    4.0903   -2.7393    0.0000 O   0  0  0  0  0  0  0  0  0  0  0  0
  1  2  1  0
  3  2  1  6
  3  4  1  0
  4  5  1  0
  5  6  2  0
  5  7  1  0
  7  8  1  1
  7  9  1  0
  9 10  1  6
 11 10  1  1
 11 12  1  0
 12 13  1  0
 13 14  1  6
 13 15  1  0
 15 16  1  0
 13 17  1  0
 17 18  1  1
 17 19  1  0
 19 20  1  1
 19 21  1  0
  9 22  1  0
 22 23  1  1
 22 24  1  0
 24 25  1  6
 26 25  1  1
 26 27  1  0
 27 28  1  0
 28 29  1  1
 28 30  1  0
 30 31  1  0
 31 32  1  6
 32 33  1  0
 32 34  1  0
 31 35  1  0
 35 36  1  6
 24 37  1  0
 37 38  1  6
 37 39  1  0
 37 40  1  0
 40 41  1  0
 41 42  1  6
 41 43  1  0
 43 44  1  0
 44 45  1  0
 44 46  1  0
 46 47  1  1
 46 48  1  0
 48 49  1  6
 49 50  1  0
 48 51  1  0
 51 52  1  6
 51 53  1  0
 51  3  1  0
 21 11  1  0
 35 26  1  0
M  END
>  <ChEMBL_IDs>  (372) 
CHEMBL2368182

>  <target_organism>  (372) 
Homo sapiens

>  <target_molecule_pref_name>  (372) 
nan

>  <# Known Targets>  (372) 
nan

>  <Known Targets>  (372) 
nan

>  <smiles>  (372) 
CC[C@H]1OC(=O)[C@H](C)[C@@H](O[C@H]2C[C@@](C)(OC)[C@@H](O)[C@@H](C)O2)[C@H](C)[C@@H](O[C@@H]2O[C@H](C)C[C@@H](N(C)C)[C@H]2O)[C@](C)(O)C[C@@H](C)CN(C)[C@H](C)[C@@H](OC)[C@]1(C)O

$$$$

     RDKit          2D

 53 55  0  0  0  0  0  0  0  0999 V2000
    5.8573   -1.2990    0.0000 C   0  0  0  0  0  0  0  0  0  0  0  0
    5.1073    0.0000    0.0000 C   0  0  0  0  0  0  0  0  0  0  0  0
    3.6073    0.0000    0.0000 C   0  0  0  0  0  0  0  0  0  0  0  0
    3.2954    1.4672    0.0000 O   0  0  0  0  0  0  0  0  0  0  0  0
    2.4138    2.6807    0.0000 C   0  0  0  0  0  0  0  0  0  0  0  0
    3.4175    3.7955    0.0000 O   0  0  0  0  0  0  0  0  0  0  0  0
    1.1147    3.4307    0.0000 C   0  0  0  0  0  0  0  0  0  0  0  0
    1.8302    4.5756    0.0000 C   0  0  0  0  0  0  0  0  0  0  0  0
   -0.3771    3.5875    0.0000 C   0  0  0  0  0  0  0  0  0  0  0  0
   -0.5339    5.0793    0.0000 O   0  0  0  0  0  0  0  0  0  0  0  0
    0.6797    5.9610    0.0000 C   0  0  0  0  0  0  0  0  0  0  0  0
    0.5229    7.4528    0.0000 C   0  0  0  0  0  0  0  0  0  0  0  0
    1.7364    8.3345    0.0000 C   0  0  0  0  0  0  0  0  0  0  0  0
    2.5752    9.5780    0.0000 C   0  0  0  0  0  0  0  0  0  0  0  0
    0.6574    9.3764    0.0000 O   0  0  0  0  0  0  0  0  0  0  0  0
    1.0203   10.8319    0.0000 C   0  0  0  0  0  0  0  0  0  0  0  0
    3.1067    7.7244    0.0000 C   0  0  0  0  0  0  0  0  0  0  0  0
    4.3202    8.6060    0.0000 O   0  0  0  0  0  0  0  0  0  0  0  0
    3.2635    6.2326    0.0000 C   0  0  0  0  0  0  0  0  0  0  0  0
    4.6338    5.6225    0.0000 C   0  0  0  0  0  0  0  0  0  0  0  0
    2.0500    5.3509    0.0000 O   0  0  0  0  0  0  0  0  0  0  0  0
   -1.8037    3.1240    0.0000 C   0  0  0  0  0  0  0  0  0  0  0  0
   -2.5537    4.4231    0.0000 C   0  0  0  0  0  0  0  0  0  0  0  0
   -2.9184    2.1203    0.0000 C   0  0  0  0  0  0  0  0  0  0  0  0
   -4.1319    3.0020    0.0000 O   0  0  0  0  0  0  0  0  0  0  0  0
   -5.5022    2.3919    0.0000 C   0  0  0  0  0  0  0  0  0  0  0  0
   -6.7157    3.2736    0.0000 O   0  0  0  0  0  0  0  0  0  0  0  0
   -8.0861    2.6635    0.0000 C   0  0  0  0  0  0  0  0  0  0  0  0
   -9.2996    3.5451    0.0000 C   0  0  0  0  0  0  0  0  0  0  0  0
   -8.2428    1.1717    0.0000 C   0  0  0  0  0  0  0  0  0  0  0  0
   -7.0293    0.2900    0.0000 C   0  0  0  0  0  0  0  0  0  0  0  0
   -7.1861   -1.2018    0.0000 N   0  0  0  0  0  0  0  0  0  0  0  0
   -8.5564   -1.8119    0.0000 C   0  0  0  0  0  0  0  0  0  0  0  0
   -5.9726   -2.0835    0.0000 C   0  0  0  0  0  0  0  0  0  0  0  0
   -5.6590    0.9001    0.0000 C   0  0  0  0  0  0  0  0  0  0  0  0
   -5.0760    0.3564    0.0000 O   0  0  0  0  0  0  0  0  0  0  0  0
   -3.5285    0.7500    0.0000 C   0  0  0  0  0  0  0  0  0  0  0  0
   -4.2257    0.3635    0.0000 C   0  0  0  0  0  0  0  0  0  0  0  0
   -4.5705    1.8290    0.0000 O   0  0  0  0  0  0  0  0  0  0  0  0
   -3.5285   -0.7500    0.0000 C   0  0  0  0  0  0  0  0  0  0  0  0
   -2.9184   -2.1203    0.0000 C   0  0  0  0  0  0  0  0  0  0  0  0
   -4.1319   -3.0020    0.0000 C   0  0  0  0  0  0  0  0  0  0  0  0
   -1.8037   -3.1240    0.0000 C   0  0  0  0  0  0  0  0  0  0  0  0
   -0.3771   -3.5875    0.0000 N   0  0  0  0  0  0  0  0  0  0  0  0
   -0.5339   -5.0793    0.0000 C   0  0  0  0  0  0  0  0  0  0  0  0
    1.1147   -3.4307    0.0000 C   0  0  0  0  0  0  0  0  0  0  0  0
    1.5782   -4.8573    0.0000 C   0  0  0  0  0  0  0  0  0  0  0  0
    2.4138   -2.6807    0.0000 C   0  0  0  0  0  0  0  0  0  0  0  0
    3.4175   -3.7955    0.0000 O   0  0  0  0  0  0  0  0  0  0  0  0
    3.2954   -1.4672    0.0000 C   0  0  0  0  0  0  0  0  0  0  0  0
    4.7726   -1.2067    0.0000 C   0  0  0  0  0  0  0  0  0  0  0  0
    4.0903   -2.7393    0.0000 O   0  0  0  0  0  0  0  0  0  0  0  0
    5.5894   -2.6869    0.0000 C   0  0  0  0  0  0  0  0  0  0  0  0
  1  2  1  0
  3  2  1  6
  3  4  1  0
  4  5  1  0
  5  6  2  0
  5  7  1  0
  7  8  1  1
  7  9  1  0
  9 10  1  6
 11 10  1  1
 11 12  1  0
 12 13  1  0
 13 14  1  6
 13 15  1  0
 15 16  1  0
 13 17  1  0
 17 18  1  1
 17 19  1  0
 19 20  1  1
 19 21  1  0
  9 22  1  0
 22 23  1  1
 22 24  1  0
 24 25  1  6
 26 25  1  1
 26 27  1  0
 27 28  1  0
 28 29  1  1
 28 30  1  0
 30 31  1  0
 31 32  1  6
 32 33  1  0
 32 34  1  0
 31 35  1  0
 35 36  1  6
 24 37  1  0
 37 38  1  6
 37 39  1  0
 37 40  1  0
 40 41  1  0
 41 42  1  6
 41 43  1  0
 43 44  1  0
 44 45  1  0
 44 46  1  0
 46 47  1  1
 46 48  1  0
 48 49  1  6
 48 50  1  0
 50 51  1  6
 50 52  1  0
 52 53  1  0
 50  3  1  0
 21 11  1  0
 35 26  1  0
M  END
>  <ChEMBL_IDs>  (373) 
CHEMBL2368183

>  <target_organism>  (373) 
Homo sapiens

>  <target_molecule_pref_name>  (373) 
nan

>  <# Known Targets>  (373) 
nan

>  <Known Targets>  (373) 
nan

>  <smiles>  (373) 
CC[C@H]1OC(=O)[C@H](C)[C@@H](O[C@H]2C[C@@](C)(OC)[C@@H](O)[C@@H](C)O2)[C@H](C)[C@@H](O[C@@H]2O[C@H](C)C[C@@H](N(C)C)[C@H]2O)[C@](C)(O)C[C@@H](C)CN(C)[C@H](C)[C@@H](O)[C@]1(C)OC

$$$$

     RDKit          2D

 54 56  0  0  0  0  0  0  0  0999 V2000
    5.8573   -1.2990    0.0000 C   0  0  0  0  0  0  0  0  0  0  0  0
    5.1073    0.0000    0.0000 C   0  0  0  0  0  0  0  0  0  0  0  0
    3.6073    0.0000    0.0000 C   0  0  0  0  0  0  0  0  0  0  0  0
    3.2954    1.4672    0.0000 O   0  0  0  0  0  0  0  0  0  0  0  0
    2.4138    2.6807    0.0000 C   0  0  0  0  0  0  0  0  0  0  0  0
    3.4175    3.7955    0.0000 O   0  0  0  0  0  0  0  0  0  0  0  0
    1.1147    3.4307    0.0000 C   0  0  0  0  0  0  0  0  0  0  0  0
    1.8302    4.5756    0.0000 C   0  0  0  0  0  0  0  0  0  0  0  0
   -0.3771    3.5875    0.0000 C   0  0  0  0  0  0  0  0  0  0  0  0
   -0.5339    5.0793    0.0000 O   0  0  0  0  0  0  0  0  0  0  0  0
    0.6797    5.9610    0.0000 C   0  0  0  0  0  0  0  0  0  0  0  0
    0.5229    7.4528    0.0000 C   0  0  0  0  0  0  0  0  0  0  0  0
    1.7364    8.3345    0.0000 C   0  0  0  0  0  0  0  0  0  0  0  0
    2.5752    9.5780    0.0000 C   0  0  0  0  0  0  0  0  0  0  0  0
    0.6574    9.3764    0.0000 O   0  0  0  0  0  0  0  0  0  0  0  0
    1.0203   10.8319    0.0000 C   0  0  0  0  0  0  0  0  0  0  0  0
    3.1067    7.7244    0.0000 C   0  0  0  0  0  0  0  0  0  0  0  0
    3.4696    9.1798    0.0000 O   0  0  0  0  0  0  0  0  0  0  0  0
    4.6031    7.6197    0.0000 C   0  0  0  0  0  0  0  0  0  0  0  0
    5.4419    8.8633    0.0000 S   0  0  0  0  0  0  0  0  0  0  0  0
    6.9382    8.7586    0.0000 C   0  0  0  0  0  0  0  0  0  0  0  0
    3.2635    6.2326    0.0000 C   0  0  0  0  0  0  0  0  0  0  0  0
    4.6338    5.6225    0.0000 C   0  0  0  0  0  0  0  0  0  0  0  0
    2.0500    5.3509    0.0000 O   0  0  0  0  0  0  0  0  0  0  0  0
   -1.8037    3.1240    0.0000 C   0  0  0  0  0  0  0  0  0  0  0  0
   -2.5537    4.4231    0.0000 C   0  0  0  0  0  0  0  0  0  0  0  0
   -2.9184    2.1203    0.0000 C   0  0  0  0  0  0  0  0  0  0  0  0
   -4.1319    3.0020    0.0000 O   0  0  0  0  0  0  0  0  0  0  0  0
   -5.5022    2.3919    0.0000 C   0  0  0  0  0  0  0  0  0  0  0  0
   -6.7157    3.2736    0.0000 O   0  0  0  0  0  0  0  0  0  0  0  0
   -8.0861    2.6635    0.0000 C   0  0  0  0  0  0  0  0  0  0  0  0
   -9.2996    3.5451    0.0000 C   0  0  0  0  0  0  0  0  0  0  0  0
   -8.2428    1.1717    0.0000 C   0  0  0  0  0  0  0  0  0  0  0  0
   -7.0293    0.2900    0.0000 C   0  0  0  0  0  0  0  0  0  0  0  0
   -7.1861   -1.2018    0.0000 N   0  0  0  0  0  0  0  0  0  0  0  0
   -8.5564   -1.8119    0.0000 C   0  0  0  0  0  0  0  0  0  0  0  0
   -5.9726   -2.0835    0.0000 C   0  0  0  0  0  0  0  0  0  0  0  0
   -5.6590    0.9001    0.0000 C   0  0  0  0  0  0  0  0  0  0  0  0
   -5.0760    0.3564    0.0000 O   0  0  0  0  0  0  0  0  0  0  0  0
   -3.5285    0.7500    0.0000 C   0  0  0  0  0  0  0  0  0  0  0  0
   -4.2257    0.3635    0.0000 C   0  0  0  0  0  0  0  0  0  0  0  0
   -4.5705    1.8290    0.0000 O   0  0  0  0  0  0  0  0  0  0  0  0
   -3.5285   -0.7500    0.0000 C   0  0  0  0  0  0  0  0  0  0  0  0
   -2.9184   -2.1203    0.0000 C   0  0  0  0  0  0  0  0  0  0  0  0
   -4.1319   -3.0020    0.0000 C   0  0  0  0  0  0  0  0  0  0  0  0
   -1.8037   -3.1240    0.0000 C   0  0  0  0  0  0  0  0  0  0  0  0
   -0.3771   -3.5875    0.0000 N   0  0  0  0  0  0  0  0  0  0  0  0
    1.1147   -3.4307    0.0000 C   0  0  0  0  0  0  0  0  0  0  0  0
    1.5782   -4.8573    0.0000 C   0  0  0  0  0  0  0  0  0  0  0  0
    2.4138   -2.6807    0.0000 C   0  0  0  0  0  0  0  0  0  0  0  0
    3.4175   -3.7955    0.0000 O   0  0  0  0  0  0  0  0  0  0  0  0
    3.2954   -1.4672    0.0000 C   0  0  0  0  0  0  0  0  0  0  0  0
    4.7726   -1.2067    0.0000 C   0  0  0  0  0  0  0  0  0  0  0  0
    4.0903   -2.7393    0.0000 O   0  0  0  0  0  0  0  0  0  0  0  0
  1  2  1  0
  3  2  1  6
  3  4  1  0
  4  5  1  0
  5  6  2  0
  5  7  1  0
  7  8  1  1
  7  9  1  0
  9 10  1  6
 11 10  1  1
 11 12  1  0
 12 13  1  0
 13 14  1  6
 13 15  1  0
 15 16  1  0
 13 17  1  0
 17 18  1  6
 17 19  1  0
 19 20  1  0
 20 21  1  0
 17 22  1  0
 22 23  1  6
 22 24  1  0
  9 25  1  0
 25 26  1  1
 25 27  1  0
 27 28  1  6
 29 28  1  1
 29 30  1  0
 30 31  1  0
 31 32  1  1
 31 33  1  0
 33 34  1  0
 34 35  1  1
 35 36  1  0
 35 37  1  0
 34 38  1  0
 38 39  1  6
 27 40  1  0
 40 41  1  6
 40 42  1  0
 40 43  1  0
 43 44  1  0
 44 45  1  6
 44 46  1  0
 46 47  1  0
 47 48  1  0
 48 49  1  1
 48 50  1  0
 50 51  1  6
 50 52  1  0
 52 53  1  6
 52 54  1  0
 52  3  1  0
 24 11  1  0
 38 29  1  0
M  END
>  <ChEMBL_IDs>  (374) 
CHEMBL59410

>  <target_organism>  (374) 
Rattus norvegicus

>  <target_molecule_pref_name>  (374) 
nan

>  <# Known Targets>  (374) 
nan

>  <Known Targets>  (374) 
nan

>  <smiles>  (374) 
CC[C@H]1OC(=O)[C@H](C)[C@@H](O[C@H]2C[C@@](C)(OC)[C@@](O)(CSC)[C@H](C)O2)[C@H](C)[C@@H](O[C@@H]2O[C@H](C)C[C@H](N(C)C)[C@H]2O)[C@](C)(O)C[C@@H](C)CN[C@H](C)[C@@H](O)[C@]1(C)O

$$$$

     RDKit          2D

 54 56  0  0  0  0  0  0  0  0999 V2000
    5.8573   -1.2990    0.0000 C   0  0  0  0  0  0  0  0  0  0  0  0
    5.1073    0.0000    0.0000 C   0  0  0  0  0  0  0  0  0  0  0  0
    3.6073    0.0000    0.0000 C   0  0  0  0  0  0  0  0  0  0  0  0
    3.2954    1.4672    0.0000 O   0  0  0  0  0  0  0  0  0  0  0  0
    2.4138    2.6807    0.0000 C   0  0  0  0  0  0  0  0  0  0  0  0
    3.4175    3.7955    0.0000 O   0  0  0  0  0  0  0  0  0  0  0  0
    1.1147    3.4307    0.0000 C   0  0  0  0  0  0  0  0  0  0  0  0
    1.8302    4.5756    0.0000 C   0  0  0  0  0  0  0  0  0  0  0  0
   -0.3771    3.5875    0.0000 C   0  0  0  0  0  0  0  0  0  0  0  0
   -0.5339    5.0793    0.0000 O   0  0  0  0  0  0  0  0  0  0  0  0
    0.6797    5.9610    0.0000 C   0  0  0  0  0  0  0  0  0  0  0  0
    0.5229    7.4528    0.0000 C   0  0  0  0  0  0  0  0  0  0  0  0
    1.7364    8.3345    0.0000 C   0  0  0  0  0  0  0  0  0  0  0  0
    2.5752    9.5780    0.0000 C   0  0  0  0  0  0  0  0  0  0  0  0
    0.6574    9.3764    0.0000 O   0  0  0  0  0  0  0  0  0  0  0  0
    1.0203   10.8319    0.0000 C   0  0  0  0  0  0  0  0  0  0  0  0
    3.1067    7.7244    0.0000 C   0  0  0  0  0  0  0  0  0  0  0  0
    3.4696    9.1798    0.0000 O   0  0  0  0  0  0  0  0  0  0  0  0
    4.6031    7.6197    0.0000 C   0  0  0  0  0  0  0  0  0  0  0  0
    5.4419    8.8633    0.0000 C   0  0  0  0  0  0  0  0  0  0  0  0
    6.9382    8.7586    0.0000 O   0  0  0  0  0  0  0  0  0  0  0  0
    3.2635    6.2326    0.0000 C   0  0  0  0  0  0  0  0  0  0  0  0
    4.6338    5.6225    0.0000 C   0  0  0  0  0  0  0  0  0  0  0  0
    2.0500    5.3509    0.0000 O   0  0  0  0  0  0  0  0  0  0  0  0
   -1.8037    3.1240    0.0000 C   0  0  0  0  0  0  0  0  0  0  0  0
   -2.5537    4.4231    0.0000 C   0  0  0  0  0  0  0  0  0  0  0  0
   -2.9184    2.1203    0.0000 C   0  0  0  0  0  0  0  0  0  0  0  0
   -4.1319    3.0020    0.0000 O   0  0  0  0  0  0  0  0  0  0  0  0
   -5.5022    2.3919    0.0000 C   0  0  0  0  0  0  0  0  0  0  0  0
   -6.7157    3.2736    0.0000 O   0  0  0  0  0  0  0  0  0  0  0  0
   -8.0861    2.6635    0.0000 C   0  0  0  0  0  0  0  0  0  0  0  0
   -9.2996    3.5451    0.0000 C   0  0  0  0  0  0  0  0  0  0  0  0
   -8.2428    1.1717    0.0000 C   0  0  0  0  0  0  0  0  0  0  0  0
   -7.0293    0.2900    0.0000 C   0  0  0  0  0  0  0  0  0  0  0  0
   -7.1861   -1.2018    0.0000 N   0  0  0  0  0  0  0  0  0  0  0  0
   -8.5564   -1.8119    0.0000 C   0  0  0  0  0  0  0  0  0  0  0  0
   -5.9726   -2.0835    0.0000 C   0  0  0  0  0  0  0  0  0  0  0  0
   -5.6590    0.9001    0.0000 C   0  0  0  0  0  0  0  0  0  0  0  0
   -5.0760    0.3564    0.0000 O   0  0  0  0  0  0  0  0  0  0  0  0
   -3.5285    0.7500    0.0000 C   0  0  0  0  0  0  0  0  0  0  0  0
   -4.2257    0.3635    0.0000 C   0  0  0  0  0  0  0  0  0  0  0  0
   -4.5705    1.8290    0.0000 O   0  0  0  0  0  0  0  0  0  0  0  0
   -3.5285   -0.7500    0.0000 C   0  0  0  0  0  0  0  0  0  0  0  0
   -2.9184   -2.1203    0.0000 C   0  0  0  0  0  0  0  0  0  0  0  0
   -4.1319   -3.0020    0.0000 C   0  0  0  0  0  0  0  0  0  0  0  0
   -1.8037   -3.1240    0.0000 C   0  0  0  0  0  0  0  0  0  0  0  0
   -0.3771   -3.5875    0.0000 N   0  0  0  0  0  0  0  0  0  0  0  0
    1.1147   -3.4307    0.0000 C   0  0  0  0  0  0  0  0  0  0  0  0
    1.5782   -4.8573    0.0000 C   0  0  0  0  0  0  0  0  0  0  0  0
    2.4138   -2.6807    0.0000 C   0  0  0  0  0  0  0  0  0  0  0  0
    3.4175   -3.7955    0.0000 O   0  0  0  0  0  0  0  0  0  0  0  0
    3.2954   -1.4672    0.0000 C   0  0  0  0  0  0  0  0  0  0  0  0
    4.7726   -1.2067    0.0000 C   0  0  0  0  0  0  0  0  0  0  0  0
    4.0903   -2.7393    0.0000 O   0  0  0  0  0  0  0  0  0  0  0  0
  1  2  1  0
  3  2  1  6
  3  4  1  0
  4  5  1  0
  5  6  2  0
  5  7  1  0
  7  8  1  1
  7  9  1  0
  9 10  1  6
 11 10  1  1
 11 12  1  0
 12 13  1  0
 13 14  1  6
 13 15  1  0
 15 16  1  0
 13 17  1  0
 17 18  1  6
 17 19  1  0
 19 20  1  0
 20 21  1  0
 17 22  1  0
 22 23  1  6
 22 24  1  0
  9 25  1  0
 25 26  1  1
 25 27  1  0
 27 28  1  6
 29 28  1  1
 29 30  1  0
 30 31  1  0
 31 32  1  1
 31 33  1  0
 33 34  1  0
 34 35  1  1
 35 36  1  0
 35 37  1  0
 34 38  1  0
 38 39  1  6
 27 40  1  0
 40 41  1  6
 40 42  1  0
 40 43  1  0
 43 44  1  0
 44 45  1  6
 44 46  1  0
 46 47  1  0
 47 48  1  0
 48 49  1  1
 48 50  1  0
 50 51  1  6
 50 52  1  0
 52 53  1  6
 52 54  1  0
 52  3  1  0
 24 11  1  0
 38 29  1  0
M  END
>  <ChEMBL_IDs>  (375) 
CHEMBL293343

>  <target_organism>  (375) 
None

>  <target_molecule_pref_name>  (375) 
nan

>  <# Known Targets>  (375) 
nan

>  <Known Targets>  (375) 
nan

>  <smiles>  (375) 
CC[C@H]1OC(=O)[C@H](C)[C@@H](O[C@H]2C[C@@](C)(OC)[C@@](O)(CCO)[C@H](C)O2)[C@H](C)[C@@H](O[C@@H]2O[C@H](C)C[C@H](N(C)C)[C@H]2O)[C@](C)(O)C[C@@H](C)CN[C@H](C)[C@@H](O)[C@]1(C)O

$$$$

     RDKit          2D

 54 56  0  0  0  0  0  0  0  0999 V2000
    5.6205   -1.2990    0.0000 C   0  0  0  0  0  0  0  0  0  0  0  0
    4.8705    0.0000    0.0000 C   0  0  0  0  0  0  0  0  0  0  0  0
    3.3705    0.0000    0.0000 C   0  0  0  0  0  0  0  0  0  0  0  0
    3.0367   -1.4624    0.0000 O   0  0  0  0  0  0  0  0  0  0  0  0
    2.1015   -2.6351    0.0000 C   0  0  0  0  0  0  0  0  0  0  0  0
    3.0367   -3.8079    0.0000 O   0  0  0  0  0  0  0  0  0  0  0  0
    0.7500   -3.2860    0.0000 C   0  0  0  0  0  0  0  0  0  0  0  0
    1.3600   -4.4903    0.0000 C   0  0  0  0  0  0  0  0  0  0  0  0
   -0.7500   -3.2860    0.0000 C   0  0  0  0  0  0  0  0  0  0  0  0
   -1.0838   -4.7484    0.0000 O   0  0  0  0  0  0  0  0  0  0  0  0
    0.0158   -5.7686    0.0000 C   0  0  0  0  0  0  0  0  0  0  0  0
   -0.3180   -7.2310    0.0000 C   0  0  0  0  0  0  0  0  0  0  0  0
    0.7816   -8.2513    0.0000 C   0  0  0  0  0  0  0  0  0  0  0  0
    1.4659   -9.5861    0.0000 C   0  0  0  0  0  0  0  0  0  0  0  0
   -0.4141   -9.1570    0.0000 O   0  0  0  0  0  0  0  0  0  0  0  0
   -0.2276  -10.6453    0.0000 C   0  0  0  0  0  0  0  0  0  0  0  0
    2.2150   -7.8091    0.0000 C   0  0  0  0  0  0  0  0  0  0  0  0
    3.3145   -8.8294    0.0000 O   0  0  0  0  0  0  0  0  0  0  0  0
    2.5487   -6.3467    0.0000 C   0  0  0  0  0  0  0  0  0  0  0  0
    3.9821   -5.9046    0.0000 C   0  0  0  0  0  0  0  0  0  0  0  0
    1.4492   -5.3265    0.0000 O   0  0  0  0  0  0  0  0  0  0  0  0
   -2.1015   -2.6351    0.0000 C   0  0  0  0  0  0  0  0  0  0  0  0
   -3.0367   -3.8079    0.0000 C   0  0  0  0  0  0  0  0  0  0  0  0
   -3.0367   -1.4624    0.0000 C   0  0  0  0  0  0  0  0  0  0  0  0
   -4.3881   -2.1132    0.0000 O   0  0  0  0  0  0  0  0  0  0  0  0
   -5.6275   -1.2682    0.0000 C   0  0  0  0  0  0  0  0  0  0  0  0
   -5.5154    0.2276    0.0000 O   0  0  0  0  0  0  0  0  0  0  0  0
   -6.7548    1.0725    0.0000 C   0  0  0  0  0  0  0  0  0  0  0  0
   -6.6427    2.5684    0.0000 C   0  0  0  0  0  0  0  0  0  0  0  0
   -8.1062    0.4217    0.0000 C   0  0  0  0  0  0  0  0  0  0  0  0
   -8.2183   -1.0741    0.0000 C   0  0  0  0  0  0  0  0  0  0  0  0
   -9.5698   -1.7249    0.0000 N   0  0  0  0  0  0  0  0  0  0  0  0
  -10.8091   -0.8799    0.0000 C   0  0  0  0  0  0  0  0  0  0  0  0
   -9.6819   -3.2207    0.0000 C   0  0  0  0  0  0  0  0  0  0  0  0
   -6.9790   -1.9191    0.0000 C   0  0  0  0  0  0  0  0  0  0  0  0
   -7.0910   -3.4149    0.0000 O   0  0  0  0  0  0  0  0  0  0  0  0
   -3.3705    0.0000    0.0000 C   0  0  0  0  0  0  0  0  0  0  0  0
   -4.6098   -0.8450    0.0000 C   0  0  0  0  0  0  0  0  0  0  0  0
   -4.6098    0.8450    0.0000 O   0  0  0  0  0  0  0  0  0  0  0  0
   -3.0367    1.4624    0.0000 C   0  0  0  0  0  0  0  0  0  0  0  0
   -2.1015    2.6351    0.0000 C   0  0  0  0  0  0  0  0  0  0  0  0
   -3.0367    3.8079    0.0000 C   0  0  0  0  0  0  0  0  0  0  0  0
   -0.7500    3.2860    0.0000 C   0  0  0  0  0  0  0  0  0  0  0  0
   -1.0838    4.7484    0.0000 N   0  0  0  0  0  0  0  0  0  0  0  0
    0.0158    5.7686    0.0000 C   0  0  0  0  0  0  0  0  0  0  0  0
   -2.5171    5.1905    0.0000 C   0  0  0  0  0  0  0  0  0  0  0  0
    0.7500    3.2860    0.0000 C   0  0  0  0  0  0  0  0  0  0  0  0
    1.0838    4.7484    0.0000 C   0  0  0  0  0  0  0  0  0  0  0  0
    2.1015    2.6351    0.0000 C   0  0  0  0  0  0  0  0  0  0  0  0
    3.0367    3.8079    0.0000 O   0  0  0  0  0  0  0  0  0  0  0  0
    3.0367    1.4624    0.0000 C   0  0  0  0  0  0  0  0  0  0  0  0
    4.5199    1.2388    0.0000 O   0  0  0  0  0  0  0  0  0  0  0  0
    3.7867    2.7614    0.0000 C   0  0  0  0  0  0  0  0  0  0  0  0
    5.2867    2.7614    0.0000 O   0  0  0  0  0  0  0  0  0  0  0  0
  1  2  1  0
  3  2  1  1
  3  4  1  0
  4  5  1  0
  5  6  2  0
  5  7  1  0
  7  8  1  6
  7  9  1  0
  9 10  1  1
 11 10  1  6
 11 12  1  0
 12 13  1  0
 13 14  1  1
 13 15  1  0
 15 16  1  0
 13 17  1  0
 17 18  1  6
 17 19  1  0
 19 20  1  1
 19 21  1  0
  9 22  1  0
 22 23  1  6
 22 24  1  0
 24 25  1  1
 26 25  1  1
 26 27  1  0
 27 28  1  0
 28 29  1  1
 28 30  1  0
 30 31  1  0
 31 32  1  1
 32 33  1  0
 32 34  1  0
 31 35  1  0
 35 36  1  6
 24 37  1  0
 37 38  1  6
 37 39  1  0
 37 40  1  0
 40 41  1  0
 41 42  1  1
 41 43  1  0
 43 44  1  1
 44 45  1  0
 44 46  1  0
 43 47  1  0
 47 48  1  6
 47 49  1  0
 49 50  1  1
 49 51  1  0
 51 52  1  6
 51 53  1  0
 53 54  1  0
 51  3  1  0
 21 11  1  0
 35 26  1  0
M  END
>  <ChEMBL_IDs>  (376) 
nan

>  <target_organism>  (376) 
nan

>  <target_molecule_pref_name>  (376) 
nan

>  <# Known Targets>  (376) 
nan

>  <Known Targets>  (376) 
nan

>  <smiles>  (376) 
CC[C@H]1OC(=O)[C@H](C)[C@@H](O[C@H]2C[C@@](C)(OC)[C@@H](O)[C@H](C)O2)[C@H](C)[C@@H](O[C@@H]2O[C@H](C)C[C@H](N(C)C)[C@H]2O)[C@@](C)(O)C[C@@H](C)[C@@H](N(C)C)[C@H](C)[C@@H](O)[C@@]1(O)CO

$$$$

     RDKit          2D

 55 57  0  0  0  0  0  0  0  0999 V2000
    6.0944   -1.2990    0.0000 C   0  0  0  0  0  0  0  0  0  0  0  0
    5.3444    0.0000    0.0000 O   0  0  0  0  0  0  0  0  0  0  0  0
    3.8444    0.0000    0.0000 C   0  0  0  0  0  0  0  0  0  0  0  0
    3.5517   -1.4712    0.0000 C   0  0  0  0  0  0  0  0  0  0  0  0
    4.9376   -2.0452    0.0000 O   0  0  0  0  0  0  0  0  0  0  0  0
    2.7184   -2.7184    0.0000 C   0  0  0  0  0  0  0  0  0  0  0  0
    1.4712   -3.5517    0.0000 C   0  0  0  0  0  0  0  0  0  0  0  0
    2.0452   -4.9376    0.0000 O   0  0  0  0  0  0  0  0  0  0  0  0
   -0.0000   -3.8444    0.0000 O   0  0  0  0  0  0  0  0  0  0  0  0
   -1.4712   -3.5517    0.0000 C   0  0  0  0  0  0  0  0  0  0  0  0
   -2.0452   -4.9376    0.0000 C   0  0  0  0  0  0  0  0  0  0  0  0
   -2.7184   -2.7184    0.0000 C   0  0  0  0  0  0  0  0  0  0  0  0
   -3.5517   -1.4712    0.0000 C   0  0  0  0  0  0  0  0  0  0  0  0
   -3.8444    0.0000    0.0000 C   0  0  0  0  0  0  0  0  0  0  0  0
   -3.5517    1.4712    0.0000 C   0  0  0  0  0  0  0  0  0  0  0  0
   -2.7184    2.7184    0.0000 C   0  0  0  0  0  0  0  0  0  0  0  0
   -1.4712    3.5517    0.0000 C   0  0  0  0  0  0  0  0  0  0  0  0
   -2.0452    4.9376    0.0000 O   0  0  0  0  0  0  0  0  0  0  0  0
    0.0000    3.8444    0.0000 C   0  0  0  0  0  0  0  0  0  0  0  0
    0.0000    5.3444    0.0000 C   0  0  0  0  0  0  0  0  0  0  0  0
    1.4712    3.5517    0.0000 C   0  0  0  0  0  0  0  0  0  0  0  0
    2.7184    2.7184    0.0000 C   0  0  0  0  0  0  0  0  0  0  0  0
    3.7790    3.7790    0.0000 C   0  0  0  0  0  0  0  0  0  0  0  0
    5.2279    3.3908    0.0000 C   0  0  0  0  0  0  0  0  0  0  0  0
    6.2886    4.4515    0.0000 O   0  0  0  0  0  0  0  0  0  0  0  0
    3.5517    1.4712    0.0000 C   0  0  0  0  0  0  0  0  0  0  0  0
    4.9376    2.0452    0.0000 O   0  0  0  0  0  0  0  0  0  0  0  0
    6.1276    1.1321    0.0000 C   0  0  0  0  0  0  0  0  0  0  0  0
    5.9318   -0.3551    0.0000 O   0  0  0  0  0  0  0  0  0  0  0  0
    7.1218   -1.2682    0.0000 C   0  0  0  0  0  0  0  0  0  0  0  0
    6.9260   -2.7554    0.0000 C   0  0  0  0  0  0  0  0  0  0  0  0
    8.5076   -0.6942    0.0000 C   0  0  0  0  0  0  0  0  0  0  0  0
    9.6977   -1.6074    0.0000 O   0  0  0  0  0  0  0  0  0  0  0  0
   11.0835   -1.0333    0.0000 C   0  0  0  0  0  0  0  0  0  0  0  0
   12.2735   -1.9465    0.0000 C   0  0  0  0  0  0  0  0  0  0  0  0
   13.6593   -1.3725    0.0000 C   0  0  0  0  0  0  0  0  0  0  0  0
   15.1579   -1.3070    0.0000 C   0  0  0  0  0  0  0  0  0  0  0  0
   13.9840   -2.8369    0.0000 O   0  0  0  0  0  0  0  0  0  0  0  0
   13.8551    0.1147    0.0000 C   0  0  0  0  0  0  0  0  0  0  0  0
   15.2410    0.6887    0.0000 O   0  0  0  0  0  0  0  0  0  0  0  0
   15.4367    2.1759    0.0000 C   0  0  0  0  0  0  0  0  0  0  0  0
   14.2467    3.0890    0.0000 O   0  0  0  0  0  0  0  0  0  0  0  0
   16.8226    2.7499    0.0000 C   0  0  0  0  0  0  0  0  0  0  0  0
   17.0184    4.2371    0.0000 C   0  0  0  0  0  0  0  0  0  0  0  0
   18.4042    4.8111    0.0000 C   0  0  0  0  0  0  0  0  0  0  0  0
   15.8283    5.1502    0.0000 C   0  0  0  0  0  0  0  0  0  0  0  0
   12.6651    1.0279    0.0000 C   0  0  0  0  0  0  0  0  0  0  0  0
   12.8609    2.5150    0.0000 C   0  0  0  0  0  0  0  0  0  0  0  0
   11.2793    0.4538    0.0000 O   0  0  0  0  0  0  0  0  0  0  0  0
    8.7034    0.7929    0.0000 C   0  0  0  0  0  0  0  0  0  0  0  0
   10.0893    1.3670    0.0000 N   0  0  0  0  0  0  0  0  0  0  0  0
   10.2850    2.8541    0.0000 C   0  0  0  0  0  0  0  0  0  0  0  0
   11.4649    0.7689    0.0000 C   0  0  0  0  0  0  0  0  0  0  0  0
    7.5134    1.7061    0.0000 C   0  0  0  0  0  0  0  0  0  0  0  0
    7.7092    3.1933    0.0000 O   0  0  0  0  0  0  0  0  0  0  0  0
  1  2  1  0
  2  3  1  0
  3  4  1  0
  4  5  1  0
  4  6  1  0
  6  7  1  0
  7  8  2  0
  7  9  1  0
  9 10  1  0
 10 11  1  0
 10 12  1  0
 12 13  1  0
 13 14  2  0
 14 15  1  0
 15 16  2  0
 16 17  1  0
 17 18  2  0
 17 19  1  0
 19 20  1  0
 19 21  1  0
 21 22  1  0
 22 23  1  0
 23 24  1  0
 24 25  2  0
 22 26  1  0
 26 27  1  0
 27 28  1  0
 28 29  1  0
 29 30  1  0
 30 31  1  0
 30 32  1  0
 32 33  1  0
 33 34  1  0
 34 35  1  0
 35 36  1  0
 36 37  1  0
 36 38  1  0
 36 39  1  0
 39 40  1  0
 40 41  1  0
 41 42  2  0
 41 43  1  0
 43 44  1  0
 44 45  1  0
 44 46  1  0
 39 47  1  0
 47 48  1  0
 47 49  1  0
 32 50  1  0
 50 51  1  0
 51 52  1  0
 51 53  1  0
 50 54  1  0
 54 55  1  0
 26  3  1  0
 54 28  1  0
 49 34  1  0
M  END
>  <ChEMBL_IDs>  (377) 
nan

>  <target_organism>  (377) 
nan

>  <target_molecule_pref_name>  (377) 
nan

>  <# Known Targets>  (377) 
nan

>  <Known Targets>  (377) 
nan

>  <smiles>  (377) 
COC1C(O)CC(=O)OC(C)C/C=C\C=C/C(=O)C(C)CC(CC=O)C1OC1OC(C)C(OC2CC(C)(O)C(OC(=O)CC(C)C)C(C)O2)C(N(C)C)C1O

$$$$

     RDKit          2D

 56 58  0  0  0  0  0  0  0  0999 V2000
    6.0944   -3.8971    0.0000 C   0  0  0  0  0  0  0  0  0  0  0  0
    5.3444   -2.5981    0.0000 C   0  0  0  0  0  0  0  0  0  0  0  0
    6.0944   -1.2990    0.0000 C   0  0  0  0  0  0  0  0  0  0  0  0
    7.5944   -1.2990    0.0000 O   0  0  0  0  0  0  0  0  0  0  0  0
    5.3444   -0.0000    0.0000 O   0  0  0  0  0  0  0  0  0  0  0  0
    3.8444    0.0000    0.0000 C   0  0  0  0  0  0  0  0  0  0  0  0
    3.5517   -1.4712    0.0000 C   0  0  0  0  0  0  0  0  0  0  0  0
    2.7184   -2.7184    0.0000 C   0  0  0  0  0  0  0  0  0  0  0  0
    3.7790   -3.7790    0.0000 O   0  0  0  0  0  0  0  0  0  0  0  0
    1.4712   -3.5517    0.0000 O   0  0  0  0  0  0  0  0  0  0  0  0
   -0.0000   -3.8444    0.0000 C   0  0  0  0  0  0  0  0  0  0  0  0
   -0.0000   -5.3444    0.0000 C   0  0  0  0  0  0  0  0  0  0  0  0
   -1.4712   -3.5517    0.0000 C   0  0  0  0  0  0  0  0  0  0  0  0
   -2.7184   -2.7184    0.0000 C   0  0  0  0  0  0  0  0  0  0  0  0
   -3.5517   -1.4712    0.0000 C   0  0  0  0  0  0  0  0  0  0  0  0
   -3.8444    0.0000    0.0000 C   0  0  0  0  0  0  0  0  0  0  0  0
   -3.5517    1.4712    0.0000 C   0  0  0  0  0  0  0  0  0  0  0  0
   -2.7184    2.7184    0.0000 C   0  0  0  0  0  0  0  0  0  0  0  0
   -3.7790    3.7790    0.0000 O   0  0  0  0  0  0  0  0  0  0  0  0
   -1.4712    3.5517    0.0000 C   0  0  0  0  0  0  0  0  0  0  0  0
   -2.0452    4.9376    0.0000 C   0  0  0  0  0  0  0  0  0  0  0  0
    0.0000    3.8444    0.0000 C   0  0  0  0  0  0  0  0  0  0  0  0
    1.4712    3.5517    0.0000 C   0  0  0  0  0  0  0  0  0  0  0  0
    2.0452    4.9376    0.0000 C   0  0  0  0  0  0  0  0  0  0  0  0
    3.5324    5.1333    0.0000 C   0  0  0  0  0  0  0  0  0  0  0  0
    4.1064    6.5192    0.0000 O   0  0  0  0  0  0  0  0  0  0  0  0
    2.7184    2.7184    0.0000 C   0  0  0  0  0  0  0  0  0  0  0  0
    3.7790    3.7790    0.0000 O   0  0  0  0  0  0  0  0  0  0  0  0
    5.2279    3.3908    0.0000 C   0  0  0  0  0  0  0  0  0  0  0  0
    5.6162    1.9419    0.0000 O   0  0  0  0  0  0  0  0  0  0  0  0
    7.0650    1.5537    0.0000 C   0  0  0  0  0  0  0  0  0  0  0  0
    7.4533    0.1048    0.0000 C   0  0  0  0  0  0  0  0  0  0  0  0
    8.1257    2.6144    0.0000 C   0  0  0  0  0  0  0  0  0  0  0  0
    9.5746    2.2261    0.0000 O   0  0  0  0  0  0  0  0  0  0  0  0
    9.9628    0.7772    0.0000 C   0  0  0  0  0  0  0  0  0  0  0  0
   11.4117    0.3890    0.0000 C   0  0  0  0  0  0  0  0  0  0  0  0
   11.7999   -1.0599    0.0000 C   0  0  0  0  0  0  0  0  0  0  0  0
   12.6603   -2.2886    0.0000 C   0  0  0  0  0  0  0  0  0  0  0  0
   13.1594   -0.4260    0.0000 O   0  0  0  0  0  0  0  0  0  0  0  0
   10.7393   -2.1205    0.0000 C   0  0  0  0  0  0  0  0  0  0  0  0
   11.1275   -3.5694    0.0000 O   0  0  0  0  0  0  0  0  0  0  0  0
   10.0669   -4.6301    0.0000 C   0  0  0  0  0  0  0  0  0  0  0  0
   10.4551   -6.0790    0.0000 C   0  0  0  0  0  0  0  0  0  0  0  0
    8.6180   -4.2419    0.0000 O   0  0  0  0  0  0  0  0  0  0  0  0
    9.2904   -1.7323    0.0000 C   0  0  0  0  0  0  0  0  0  0  0  0
    8.2297   -2.7930    0.0000 C   0  0  0  0  0  0  0  0  0  0  0  0
    8.9022   -0.2834    0.0000 O   0  0  0  0  0  0  0  0  0  0  0  0
    7.7375    4.0632    0.0000 C   0  0  0  0  0  0  0  0  0  0  0  0
    8.7981    5.1239    0.0000 N   0  0  0  0  0  0  0  0  0  0  0  0
    8.4099    6.5728    0.0000 C   0  0  0  0  0  0  0  0  0  0  0  0
   10.2470    4.7357    0.0000 C   0  0  0  0  0  0  0  0  0  0  0  0
    6.2886    4.4515    0.0000 C   0  0  0  0  0  0  0  0  0  0  0  0
    5.9004    5.9004    0.0000 O   0  0  0  0  0  0  0  0  0  0  0  0
    3.5517    1.4712    0.0000 C   0  0  0  0  0  0  0  0  0  0  0  0
    4.9376    2.0452    0.0000 O   0  0  0  0  0  0  0  0  0  0  0  0
    6.1276    1.1321    0.0000 C   0  0  0  0  0  0  0  0  0  0  0  0
  1  2  1  0
  2  3  1  0
  3  4  2  0
  3  5  1  0
  5  6  1  0
  6  7  1  0
  7  8  1  0
  8  9  2  0
  8 10  1  0
 10 11  1  0
 11 12  1  0
 11 13  1  0
 13 14  1  0
 14 15  2  0
 15 16  1  0
 16 17  2  0
 17 18  1  0
 18 19  1  0
 18 20  1  0
 20 21  1  0
 20 22  1  0
 22 23  1  0
 23 24  1  0
 24 25  1  0
 25 26  2  0
 23 27  1  0
 27 28  1  0
 28 29  1  0
 29 30  1  0
 30 31  1  0
 31 32  1  0
 31 33  1  0
 33 34  1  0
 34 35  1  0
 35 36  1  0
 36 37  1  0
 37 38  1  0
 37 39  1  0
 37 40  1  0
 40 41  1  0
 41 42  1  0
 42 43  1  0
 42 44  2  0
 40 45  1  0
 45 46  1  0
 45 47  1  0
 33 48  1  0
 48 49  1  0
 49 50  1  0
 49 51  1  0
 48 52  1  0
 52 53  1  0
 27 54  1  0
 54 55  1  0
 55 56  1  0
 54  6  1  0
 52 29  1  0
 47 35  1  0
M  END
>  <ChEMBL_IDs>  (378) 
nan

>  <target_organism>  (378) 
nan

>  <target_molecule_pref_name>  (378) 
nan

>  <# Known Targets>  (378) 
nan

>  <Known Targets>  (378) 
nan

>  <smiles>  (378) 
CCC(=O)OC1CC(=O)OC(C)C/C=C\C=C/C(O)C(C)CC(CC=O)C(OC2OC(C)C(OC3CC(C)(O)C(OC(C)=O)C(C)O3)C(N(C)C)C2O)C1OC

$$$$

     RDKit          2D

 56 58  0  0  0  0  0  0  0  0999 V2000
    6.0944   -3.8971    0.0000 C   0  0  0  0  0  0  0  0  0  0  0  0
    5.3444   -2.5981    0.0000 C   0  0  0  0  0  0  0  0  0  0  0  0
    6.0944   -1.2990    0.0000 C   0  0  0  0  0  0  0  0  0  0  0  0
    7.5944   -1.2990    0.0000 O   0  0  0  0  0  0  0  0  0  0  0  0
    5.3444   -0.0000    0.0000 O   0  0  0  0  0  0  0  0  0  0  0  0
    3.8444    0.0000    0.0000 C   0  0  0  0  0  0  0  0  0  0  0  0
    3.5517   -1.4712    0.0000 C   0  0  0  0  0  0  0  0  0  0  0  0
    2.7184   -2.7184    0.0000 C   0  0  0  0  0  0  0  0  0  0  0  0
    3.7790   -3.7790    0.0000 O   0  0  0  0  0  0  0  0  0  0  0  0
    1.4712   -3.5517    0.0000 O   0  0  0  0  0  0  0  0  0  0  0  0
   -0.0000   -3.8444    0.0000 C   0  0  0  0  0  0  0  0  0  0  0  0
   -0.0000   -5.3444    0.0000 C   0  0  0  0  0  0  0  0  0  0  0  0
   -1.4712   -3.5517    0.0000 C   0  0  0  0  0  0  0  0  0  0  0  0
   -2.7184   -2.7184    0.0000 C   0  0  0  0  0  0  0  0  0  0  0  0
   -3.5517   -1.4712    0.0000 C   0  0  0  0  0  0  0  0  0  0  0  0
   -3.8444    0.0000    0.0000 C   0  0  0  0  0  0  0  0  0  0  0  0
   -3.5517    1.4712    0.0000 C   0  0  0  0  0  0  0  0  0  0  0  0
   -2.7184    2.7184    0.0000 C   0  0  0  0  0  0  0  0  0  0  0  0
   -3.7790    3.7790    0.0000 O   0  0  0  0  0  0  0  0  0  0  0  0
   -1.4712    3.5517    0.0000 C   0  0  0  0  0  0  0  0  0  0  0  0
   -2.0452    4.9376    0.0000 C   0  0  0  0  0  0  0  0  0  0  0  0
    0.0000    3.8444    0.0000 C   0  0  0  0  0  0  0  0  0  0  0  0
    1.4712    3.5517    0.0000 C   0  0  0  0  0  0  0  0  0  0  0  0
    2.0452    4.9376    0.0000 C   0  0  0  0  0  0  0  0  0  0  0  0
    3.5324    5.1333    0.0000 C   0  0  0  0  0  0  0  0  0  0  0  0
    4.1064    6.5192    0.0000 O   0  0  0  0  0  0  0  0  0  0  0  0
    2.7184    2.7184    0.0000 C   0  0  0  0  0  0  0  0  0  0  0  0
    3.7790    3.7790    0.0000 O   0  0  0  0  0  0  0  0  0  0  0  0
    5.2279    3.3908    0.0000 C   0  0  0  0  0  0  0  0  0  0  0  0
    5.6162    1.9419    0.0000 O   0  0  0  0  0  0  0  0  0  0  0  0
    7.0650    1.5537    0.0000 C   0  0  0  0  0  0  0  0  0  0  0  0
    7.4533    0.1048    0.0000 C   0  0  0  0  0  0  0  0  0  0  0  0
    8.1257    2.6144    0.0000 C   0  0  0  0  0  0  0  0  0  0  0  0
    9.5746    2.2261    0.0000 O   0  0  0  0  0  0  0  0  0  0  0  0
    9.9628    0.7772    0.0000 C   0  0  0  0  0  0  0  0  0  0  0  0
   11.4117    0.3890    0.0000 C   0  0  0  0  0  0  0  0  0  0  0  0
   11.7999   -1.0599    0.0000 C   0  0  0  0  0  0  0  0  0  0  0  0
   12.6603   -2.2886    0.0000 C   0  0  0  0  0  0  0  0  0  0  0  0
   13.1594   -0.4260    0.0000 O   0  0  0  0  0  0  0  0  0  0  0  0
   10.7393   -2.1205    0.0000 C   0  0  0  0  0  0  0  0  0  0  0  0
   11.1275   -3.5694    0.0000 O   0  0  0  0  0  0  0  0  0  0  0  0
   10.0669   -4.6301    0.0000 C   0  0  0  0  0  0  0  0  0  0  0  0
   10.4551   -6.0790    0.0000 C   0  0  0  0  0  0  0  0  0  0  0  0
    8.6180   -4.2419    0.0000 O   0  0  0  0  0  0  0  0  0  0  0  0
    9.2904   -1.7323    0.0000 C   0  0  0  0  0  0  0  0  0  0  0  0
    8.2297   -2.7930    0.0000 C   0  0  0  0  0  0  0  0  0  0  0  0
    8.9022   -0.2834    0.0000 O   0  0  0  0  0  0  0  0  0  0  0  0
    7.7375    4.0632    0.0000 C   0  0  0  0  0  0  0  0  0  0  0  0
    8.7981    5.1239    0.0000 N   0  0  0  0  0  0  0  0  0  0  0  0
    8.4099    6.5728    0.0000 C   0  0  0  0  0  0  0  0  0  0  0  0
   10.2470    4.7357    0.0000 C   0  0  0  0  0  0  0  0  0  0  0  0
    6.2886    4.4515    0.0000 C   0  0  0  0  0  0  0  0  0  0  0  0
    5.9004    5.9004    0.0000 O   0  0  0  0  0  0  0  0  0  0  0  0
    3.5517    1.4712    0.0000 C   0  0  0  0  0  0  0  0  0  0  0  0
    4.9376    2.0452    0.0000 O   0  0  0  0  0  0  0  0  0  0  0  0
    6.1276    1.1321    0.0000 C   0  0  0  0  0  0  0  0  0  0  0  0
  1  2  1  0
  2  3  1  0
  3  4  2  0
  3  5  1  0
  5  6  1  0
  6  7  1  0
  7  8  1  0
  8  9  2  0
  8 10  1  0
 10 11  1  0
 11 12  1  0
 11 13  1  0
 13 14  1  0
 14 15  2  0
 15 16  1  0
 16 17  2  0
 17 18  1  0
 18 19  1  0
 18 20  1  0
 20 21  1  0
 20 22  1  0
 22 23  1  0
 23 24  1  0
 24 25  1  0
 25 26  2  0
 23 27  1  0
 27 28  1  0
 28 29  1  0
 29 30  1  0
 30 31  1  0
 31 32  1  0
 31 33  1  0
 33 34  1  0
 34 35  1  0
 35 36  1  0
 36 37  1  0
 37 38  1  0
 37 39  1  0
 37 40  1  0
 40 41  1  0
 41 42  1  0
 42 43  1  0
 42 44  2  0
 40 45  1  0
 45 46  1  0
 45 47  1  0
 33 48  1  0
 48 49  1  0
 49 50  1  0
 49 51  1  0
 48 52  1  0
 52 53  1  0
 27 54  1  0
 54 55  1  0
 55 56  1  0
 54  6  1  0
 52 29  1  0
 47 35  1  0
M  END
>  <ChEMBL_IDs>  (379) 
nan

>  <target_organism>  (379) 
nan

>  <target_molecule_pref_name>  (379) 
nan

>  <# Known Targets>  (379) 
nan

>  <Known Targets>  (379) 
nan

>  <smiles>  (379) 
CCC(=O)OC1CC(=O)OC(C)C/C=C\C=C/C(O)C(C)CC(CC=O)C(OC2OC(C)C(OC3CC(C)(O)C(OC(C)=O)C(C)O3)C(N(C)C)C2O)C1OC

$$$$

     RDKit          2D

 56 58  0  0  0  0  0  0  0  0999 V2000
    6.0944   -3.8971    0.0000 C   0  0  0  0  0  0  0  0  0  0  0  0
    5.3444   -2.5981    0.0000 C   0  0  0  0  0  0  0  0  0  0  0  0
    6.0944   -1.2990    0.0000 C   0  0  0  0  0  0  0  0  0  0  0  0
    7.5944   -1.2990    0.0000 O   0  0  0  0  0  0  0  0  0  0  0  0
    5.3444   -0.0000    0.0000 O   0  0  0  0  0  0  0  0  0  0  0  0
    3.8444    0.0000    0.0000 C   0  0  0  0  0  0  0  0  0  0  0  0
    3.5517   -1.4712    0.0000 C   0  0  0  0  0  0  0  0  0  0  0  0
    2.7184   -2.7184    0.0000 C   0  0  0  0  0  0  0  0  0  0  0  0
    3.7790   -3.7790    0.0000 O   0  0  0  0  0  0  0  0  0  0  0  0
    1.4712   -3.5517    0.0000 O   0  0  0  0  0  0  0  0  0  0  0  0
   -0.0000   -3.8444    0.0000 C   0  0  0  0  0  0  0  0  0  0  0  0
   -0.0000   -5.3444    0.0000 C   0  0  0  0  0  0  0  0  0  0  0  0
   -1.4712   -3.5517    0.0000 C   0  0  0  0  0  0  0  0  0  0  0  0
   -2.7184   -2.7184    0.0000 C   0  0  0  0  0  0  0  0  0  0  0  0
   -3.7790   -3.7790    0.0000 O   0  0  0  0  0  0  0  0  0  0  0  0
   -3.5517   -1.4712    0.0000 C   0  0  0  0  0  0  0  0  0  0  0  0
   -3.8444    0.0000    0.0000 C   0  0  0  0  0  0  0  0  0  0  0  0
   -3.5517    1.4712    0.0000 C   0  0  0  0  0  0  0  0  0  0  0  0
   -2.7184    2.7184    0.0000 C   0  0  0  0  0  0  0  0  0  0  0  0
   -1.4712    3.5517    0.0000 C   0  0  0  0  0  0  0  0  0  0  0  0
   -2.0452    4.9376    0.0000 C   0  0  0  0  0  0  0  0  0  0  0  0
    0.0000    3.8444    0.0000 C   0  0  0  0  0  0  0  0  0  0  0  0
    1.4712    3.5517    0.0000 C   0  0  0  0  0  0  0  0  0  0  0  0
    2.0452    4.9376    0.0000 C   0  0  0  0  0  0  0  0  0  0  0  0
    3.5324    5.1333    0.0000 C   0  0  0  0  0  0  0  0  0  0  0  0
    4.1064    6.5192    0.0000 O   0  0  0  0  0  0  0  0  0  0  0  0
    2.7184    2.7184    0.0000 C   0  0  0  0  0  0  0  0  0  0  0  0
    3.7790    3.7790    0.0000 O   0  0  0  0  0  0  0  0  0  0  0  0
    5.2279    3.3908    0.0000 C   0  0  0  0  0  0  0  0  0  0  0  0
    5.6162    1.9419    0.0000 O   0  0  0  0  0  0  0  0  0  0  0  0
    7.0650    1.5537    0.0000 C   0  0  0  0  0  0  0  0  0  0  0  0
    7.4533    0.1048    0.0000 C   0  0  0  0  0  0  0  0  0  0  0  0
    8.1257    2.6144    0.0000 C   0  0  0  0  0  0  0  0  0  0  0  0
    9.5746    2.2261    0.0000 O   0  0  0  0  0  0  0  0  0  0  0  0
    9.9628    0.7772    0.0000 C   0  0  0  0  0  0  0  0  0  0  0  0
   11.4117    0.3890    0.0000 C   0  0  0  0  0  0  0  0  0  0  0  0
   11.7999   -1.0599    0.0000 C   0  0  0  0  0  0  0  0  0  0  0  0
   12.6603   -2.2886    0.0000 C   0  0  0  0  0  0  0  0  0  0  0  0
   13.1594   -0.4260    0.0000 O   0  0  0  0  0  0  0  0  0  0  0  0
   10.7393   -2.1205    0.0000 C   0  0  0  0  0  0  0  0  0  0  0  0
   11.1275   -3.5694    0.0000 O   0  0  0  0  0  0  0  0  0  0  0  0
   10.0669   -4.6301    0.0000 C   0  0  0  0  0  0  0  0  0  0  0  0
   10.4551   -6.0790    0.0000 C   0  0  0  0  0  0  0  0  0  0  0  0
    8.6180   -4.2419    0.0000 O   0  0  0  0  0  0  0  0  0  0  0  0
    9.2904   -1.7323    0.0000 C   0  0  0  0  0  0  0  0  0  0  0  0
    8.2297   -2.7930    0.0000 C   0  0  0  0  0  0  0  0  0  0  0  0
    8.9022   -0.2834    0.0000 O   0  0  0  0  0  0  0  0  0  0  0  0
    7.7375    4.0632    0.0000 C   0  0  0  0  0  0  0  0  0  0  0  0
    8.7981    5.1239    0.0000 N   0  0  0  0  0  0  0  0  0  0  0  0
    8.4099    6.5728    0.0000 C   0  0  0  0  0  0  0  0  0  0  0  0
   10.2470    4.7357    0.0000 C   0  0  0  0  0  0  0  0  0  0  0  0
    6.2886    4.4515    0.0000 C   0  0  0  0  0  0  0  0  0  0  0  0
    5.9004    5.9004    0.0000 O   0  0  0  0  0  0  0  0  0  0  0  0
    3.5517    1.4712    0.0000 C   0  0  0  0  0  0  0  0  0  0  0  0
    4.9376    2.0452    0.0000 O   0  0  0  0  0  0  0  0  0  0  0  0
    6.1276    1.1321    0.0000 C   0  0  0  0  0  0  0  0  0  0  0  0
  1  2  1  0
  2  3  1  0
  3  4  2  0
  3  5  1  0
  5  6  1  0
  6  7  1  0
  7  8  1  0
  8  9  2  0
  8 10  1  0
 10 11  1  0
 11 12  1  0
 11 13  1  0
 13 14  1  0
 14 15  1  0
 14 16  1  0
 16 17  2  0
 17 18  1  0
 18 19  2  0
 19 20  1  0
 20 21  1  0
 20 22  1  0
 22 23  1  0
 23 24  1  0
 24 25  1  0
 25 26  2  0
 23 27  1  0
 27 28  1  0
 28 29  1  0
 29 30  1  0
 30 31  1  0
 31 32  1  0
 31 33  1  0
 33 34  1  0
 34 35  1  0
 35 36  1  0
 36 37  1  0
 37 38  1  0
 37 39  1  0
 37 40  1  0
 40 41  1  0
 41 42  1  0
 42 43  1  0
 42 44  2  0
 40 45  1  0
 45 46  1  0
 45 47  1  0
 33 48  1  0
 48 49  1  0
 49 50  1  0
 49 51  1  0
 48 52  1  0
 52 53  1  0
 27 54  1  0
 54 55  1  0
 55 56  1  0
 54  6  1  0
 52 29  1  0
 47 35  1  0
M  END
>  <ChEMBL_IDs>  (380) 
nan

>  <target_organism>  (380) 
nan

>  <target_molecule_pref_name>  (380) 
nan

>  <# Known Targets>  (380) 
nan

>  <Known Targets>  (380) 
nan

>  <smiles>  (380) 
CCC(=O)OC1CC(=O)OC(C)CC(O)/C=C\C=C/C(C)CC(CC=O)C(OC2OC(C)C(OC3CC(C)(O)C(OC(C)=O)C(C)O3)C(N(C)C)C2O)C1OC

$$$$

     RDKit          2D

 56 58  0  0  0  0  0  0  0  0999 V2000
   15.0299   -9.0377    0.0000 C   0  0  0  0  0  0  0  0  0  0  0  0
   13.8398   -9.9509    0.0000 C   0  0  0  0  0  0  0  0  0  0  0  0
   12.4540   -9.3768    0.0000 C   0  0  0  0  0  0  0  0  0  0  0  0
   12.2582   -7.8897    0.0000 O   0  0  0  0  0  0  0  0  0  0  0  0
   11.2640  -10.2900    0.0000 O   0  0  0  0  0  0  0  0  0  0  0  0
    9.8782   -9.7159    0.0000 C   0  0  0  0  0  0  0  0  0  0  0  0
    9.6824   -8.2288    0.0000 C   0  0  0  0  0  0  0  0  0  0  0  0
   10.8724   -7.3156    0.0000 C   0  0  0  0  0  0  0  0  0  0  0  0
    8.2966   -7.6548    0.0000 O   0  0  0  0  0  0  0  0  0  0  0  0
    7.1065   -8.5679    0.0000 C   0  0  0  0  0  0  0  0  0  0  0  0
    5.7207   -7.9939    0.0000 O   0  0  0  0  0  0  0  0  0  0  0  0
    5.5249   -6.5067    0.0000 C   0  0  0  0  0  0  0  0  0  0  0  0
    4.1391   -5.9327    0.0000 C   0  0  0  0  0  0  0  0  0  0  0  0
    2.9491   -6.8458    0.0000 C   0  0  0  0  0  0  0  0  0  0  0  0
    3.9433   -4.4455    0.0000 O   0  0  0  0  0  0  0  0  0  0  0  0
    5.1333   -3.5324    0.0000 C   0  0  0  0  0  0  0  0  0  0  0  0
    4.9376   -2.0452    0.0000 O   0  0  0  0  0  0  0  0  0  0  0  0
    3.5517   -1.4712    0.0000 C   0  0  0  0  0  0  0  0  0  0  0  0
    3.8444    0.0000    0.0000 C   0  0  0  0  0  0  0  0  0  0  0  0
    5.3444    0.0000    0.0000 C   0  0  0  0  0  0  0  0  0  0  0  0
    6.0944   -1.2990    0.0000 C   0  0  0  0  0  0  0  0  0  0  0  0
    7.5944   -1.2990    0.0000 O   0  0  0  0  0  0  0  0  0  0  0  0
    3.5517    1.4712    0.0000 C   0  0  0  0  0  0  0  0  0  0  0  0
    2.7184    2.7184    0.0000 C   0  0  0  0  0  0  0  0  0  0  0  0
    3.7790    3.7790    0.0000 C   0  0  0  0  0  0  0  0  0  0  0  0
    1.4712    3.5517    0.0000 C   0  0  0  0  0  0  0  0  0  0  0  0
    2.0452    4.9376    0.0000 O   0  0  0  0  0  0  0  0  0  0  0  0
    0.0000    3.8444    0.0000 C   0  0  0  0  0  0  0  0  0  0  0  0
   -1.4712    3.5517    0.0000 C   0  0  0  0  0  0  0  0  0  0  0  0
   -2.7184    2.7184    0.0000 C   0  0  0  0  0  0  0  0  0  0  0  0
   -3.5517    1.4712    0.0000 C   0  0  0  0  0  0  0  0  0  0  0  0
   -3.8444    0.0000    0.0000 C   0  0  0  0  0  0  0  0  0  0  0  0
   -3.5517   -1.4712    0.0000 C   0  0  0  0  0  0  0  0  0  0  0  0
   -4.9376   -2.0452    0.0000 C   0  0  0  0  0  0  0  0  0  0  0  0
   -2.7184   -2.7184    0.0000 O   0  0  0  0  0  0  0  0  0  0  0  0
   -1.4712   -3.5517    0.0000 C   0  0  0  0  0  0  0  0  0  0  0  0
   -2.0452   -4.9376    0.0000 O   0  0  0  0  0  0  0  0  0  0  0  0
   -0.0000   -3.8444    0.0000 C   0  0  0  0  0  0  0  0  0  0  0  0
    1.4712   -3.5517    0.0000 C   0  0  0  0  0  0  0  0  0  0  0  0
    2.0452   -4.9376    0.0000 O   0  0  0  0  0  0  0  0  0  0  0  0
    1.1321   -6.1276    0.0000 C   0  0  0  0  0  0  0  0  0  0  0  0
    1.7061   -7.5134    0.0000 C   0  0  0  0  0  0  0  0  0  0  0  0
   -0.3551   -5.9318    0.0000 O   0  0  0  0  0  0  0  0  0  0  0  0
    2.7184   -2.7184    0.0000 C   0  0  0  0  0  0  0  0  0  0  0  0
    3.7790   -3.7790    0.0000 O   0  0  0  0  0  0  0  0  0  0  0  0
    3.3908   -5.2279    0.0000 C   0  0  0  0  0  0  0  0  0  0  0  0
    6.5192   -4.1064    0.0000 C   0  0  0  0  0  0  0  0  0  0  0  0
    7.7092   -3.1933    0.0000 O   0  0  0  0  0  0  0  0  0  0  0  0
    6.7150   -5.5936    0.0000 C   0  0  0  0  0  0  0  0  0  0  0  0
    8.1008   -6.1676    0.0000 N   0  0  0  0  0  0  0  0  0  0  0  0
    8.6506   -7.5632    0.0000 C   0  0  0  0  0  0  0  0  0  0  0  0
    9.2908   -5.2544    0.0000 C   0  0  0  0  0  0  0  0  0  0  0  0
    7.3023  -10.0551    0.0000 C   0  0  0  0  0  0  0  0  0  0  0  0
    8.6881  -10.6291    0.0000 C   0  0  0  0  0  0  0  0  0  0  0  0
    7.8822  -11.8942    0.0000 C   0  0  0  0  0  0  0  0  0  0  0  0
    9.7941  -11.6425    0.0000 O   0  0  0  0  0  0  0  0  0  0  0  0
  1  2  1  0
  2  3  1  0
  3  4  2  0
  3  5  1  0
  5  6  1  0
  6  7  1  0
  7  8  1  0
  7  9  1  0
  9 10  1  0
 10 11  1  0
 11 12  1  0
 12 13  1  0
 13 14  1  0
 13 15  1  0
 15 16  1  0
 16 17  1  0
 17 18  1  0
 18 19  1  0
 19 20  1  0
 20 21  1  0
 21 22  2  0
 19 23  1  0
 23 24  1  0
 24 25  1  0
 24 26  1  0
 26 27  1  0
 26 28  1  0
 28 29  2  0
 29 30  1  0
 30 31  2  0
 31 32  1  0
 32 33  1  0
 33 34  1  0
 33 35  1  0
 35 36  1  0
 36 37  2  0
 36 38  1  0
 38 39  1  0
 39 40  1  0
 40 41  1  0
 41 42  1  0
 41 43  2  0
 39 44  1  0
 44 45  1  0
 45 46  1  0
 16 47  1  0
 47 48  1  0
 47 49  1  0
 49 50  1  0
 50 51  1  0
 50 52  1  0
 10 53  1  0
 53 54  1  0
 54 55  1  0
 54 56  1  0
 54  6  1  0
 49 12  1  0
 44 18  1  0
M  END
>  <ChEMBL_IDs>  (381) 
nan

>  <target_organism>  (381) 
nan

>  <target_molecule_pref_name>  (381) 
nan

>  <# Known Targets>  (381) 
nan

>  <Known Targets>  (381) 
nan

>  <smiles>  (381) 
CCC(=O)OC1C(C)OC(OC2C(C)OC(OC3C(CC=O)CC(C)C(O)/C=C\C=C/CC(C)OC(=O)CC(OC(C)=O)C3OC)C(O)C2N(C)C)CC1(C)O

$$$$

     RDKit          2D

 56 58  0  0  0  0  0  0  0  0999 V2000
   15.0299   -9.0377    0.0000 C   0  0  0  0  0  0  0  0  0  0  0  0
   13.8398   -9.9509    0.0000 C   0  0  0  0  0  0  0  0  0  0  0  0
   12.4540   -9.3768    0.0000 C   0  0  0  0  0  0  0  0  0  0  0  0
   12.2582   -7.8897    0.0000 O   0  0  0  0  0  0  0  0  0  0  0  0
   11.2640  -10.2900    0.0000 O   0  0  0  0  0  0  0  0  0  0  0  0
    9.8782   -9.7159    0.0000 C   0  0  0  0  0  0  0  0  0  0  0  0
    9.6824   -8.2288    0.0000 C   0  0  0  0  0  0  0  0  0  0  0  0
   10.8724   -7.3156    0.0000 C   0  0  0  0  0  0  0  0  0  0  0  0
    8.2966   -7.6548    0.0000 O   0  0  0  0  0  0  0  0  0  0  0  0
    7.1065   -8.5679    0.0000 C   0  0  0  0  0  0  0  0  0  0  0  0
    5.7207   -7.9939    0.0000 O   0  0  0  0  0  0  0  0  0  0  0  0
    5.5249   -6.5067    0.0000 C   0  0  0  0  0  0  0  0  0  0  0  0
    4.1391   -5.9327    0.0000 C   0  0  0  0  0  0  0  0  0  0  0  0
    2.9491   -6.8458    0.0000 C   0  0  0  0  0  0  0  0  0  0  0  0
    3.9433   -4.4455    0.0000 O   0  0  0  0  0  0  0  0  0  0  0  0
    5.1333   -3.5324    0.0000 C   0  0  0  0  0  0  0  0  0  0  0  0
    4.9376   -2.0452    0.0000 O   0  0  0  0  0  0  0  0  0  0  0  0
    3.5517   -1.4712    0.0000 C   0  0  0  0  0  0  0  0  0  0  0  0
    3.8444    0.0000    0.0000 C   0  0  0  0  0  0  0  0  0  0  0  0
    5.3444    0.0000    0.0000 C   0  0  0  0  0  0  0  0  0  0  0  0
    6.0944   -1.2990    0.0000 C   0  0  0  0  0  0  0  0  0  0  0  0
    7.5944   -1.2990    0.0000 O   0  0  0  0  0  0  0  0  0  0  0  0
    3.5517    1.4712    0.0000 C   0  0  0  0  0  0  0  0  0  0  0  0
    2.7184    2.7184    0.0000 C   0  0  0  0  0  0  0  0  0  0  0  0
    3.7790    3.7790    0.0000 C   0  0  0  0  0  0  0  0  0  0  0  0
    1.4712    3.5517    0.0000 C   0  0  0  0  0  0  0  0  0  0  0  0
    2.0452    4.9376    0.0000 O   0  0  0  0  0  0  0  0  0  0  0  0
    0.0000    3.8444    0.0000 C   0  0  0  0  0  0  0  0  0  0  0  0
   -1.4712    3.5517    0.0000 C   0  0  0  0  0  0  0  0  0  0  0  0
   -2.7184    2.7184    0.0000 C   0  0  0  0  0  0  0  0  0  0  0  0
   -3.5517    1.4712    0.0000 C   0  0  0  0  0  0  0  0  0  0  0  0
   -3.8444    0.0000    0.0000 C   0  0  0  0  0  0  0  0  0  0  0  0
   -3.5517   -1.4712    0.0000 C   0  0  0  0  0  0  0  0  0  0  0  0
   -4.9376   -2.0452    0.0000 C   0  0  0  0  0  0  0  0  0  0  0  0
   -2.7184   -2.7184    0.0000 O   0  0  0  0  0  0  0  0  0  0  0  0
   -1.4712   -3.5517    0.0000 C   0  0  0  0  0  0  0  0  0  0  0  0
   -2.0452   -4.9376    0.0000 O   0  0  0  0  0  0  0  0  0  0  0  0
   -0.0000   -3.8444    0.0000 C   0  0  0  0  0  0  0  0  0  0  0  0
    1.4712   -3.5517    0.0000 C   0  0  0  0  0  0  0  0  0  0  0  0
    2.0452   -4.9376    0.0000 O   0  0  0  0  0  0  0  0  0  0  0  0
    1.1321   -6.1276    0.0000 C   0  0  0  0  0  0  0  0  0  0  0  0
    1.7061   -7.5134    0.0000 C   0  0  0  0  0  0  0  0  0  0  0  0
   -0.3551   -5.9318    0.0000 O   0  0  0  0  0  0  0  0  0  0  0  0
    2.7184   -2.7184    0.0000 C   0  0  0  0  0  0  0  0  0  0  0  0
    3.7790   -3.7790    0.0000 O   0  0  0  0  0  0  0  0  0  0  0  0
    3.3908   -5.2279    0.0000 C   0  0  0  0  0  0  0  0  0  0  0  0
    6.5192   -4.1064    0.0000 C   0  0  0  0  0  0  0  0  0  0  0  0
    7.7092   -3.1933    0.0000 O   0  0  0  0  0  0  0  0  0  0  0  0
    6.7150   -5.5936    0.0000 C   0  0  0  0  0  0  0  0  0  0  0  0
    8.1008   -6.1676    0.0000 N   0  0  0  0  0  0  0  0  0  0  0  0
    8.6506   -7.5632    0.0000 C   0  0  0  0  0  0  0  0  0  0  0  0
    9.2908   -5.2544    0.0000 C   0  0  0  0  0  0  0  0  0  0  0  0
    7.3023  -10.0551    0.0000 C   0  0  0  0  0  0  0  0  0  0  0  0
    8.6881  -10.6291    0.0000 C   0  0  0  0  0  0  0  0  0  0  0  0
    7.8822  -11.8942    0.0000 C   0  0  0  0  0  0  0  0  0  0  0  0
    9.7941  -11.6425    0.0000 O   0  0  0  0  0  0  0  0  0  0  0  0
  1  2  1  0
  2  3  1  0
  3  4  2  0
  3  5  1  0
  5  6  1  0
  6  7  1  0
  7  8  1  0
  7  9  1  0
  9 10  1  0
 10 11  1  0
 11 12  1  0
 12 13  1  0
 13 14  1  0
 13 15  1  0
 15 16  1  0
 16 17  1  0
 17 18  1  0
 18 19  1  0
 19 20  1  0
 20 21  1  0
 21 22  2  0
 19 23  1  0
 23 24  1  0
 24 25  1  0
 24 26  1  0
 26 27  1  0
 26 28  1  0
 28 29  2  0
 29 30  1  0
 30 31  2  0
 31 32  1  0
 32 33  1  0
 33 34  1  0
 33 35  1  0
 35 36  1  0
 36 37  2  0
 36 38  1  0
 38 39  1  0
 39 40  1  0
 40 41  1  0
 41 42  1  0
 41 43  2  0
 39 44  1  0
 44 45  1  0
 45 46  1  0
 16 47  1  0
 47 48  1  0
 47 49  1  0
 49 50  1  0
 50 51  1  0
 50 52  1  0
 10 53  1  0
 53 54  1  0
 54 55  1  0
 54 56  1  0
 54  6  1  0
 49 12  1  0
 44 18  1  0
M  END
>  <ChEMBL_IDs>  (382) 
nan

>  <target_organism>  (382) 
nan

>  <target_molecule_pref_name>  (382) 
nan

>  <# Known Targets>  (382) 
nan

>  <Known Targets>  (382) 
nan

>  <smiles>  (382) 
CCC(=O)OC1C(C)OC(OC2C(C)OC(OC3C(CC=O)CC(C)C(O)/C=C\C=C/CC(C)OC(=O)CC(OC(C)=O)C3OC)C(O)C2N(C)C)CC1(C)O

$$$$

     RDKit          2D

 56 58  0  0  0  0  0  0  0  0999 V2000
   15.0299   -9.0377    0.0000 C   0  0  0  0  0  0  0  0  0  0  0  0
   13.8398   -9.9509    0.0000 C   0  0  0  0  0  0  0  0  0  0  0  0
   12.4540   -9.3768    0.0000 C   0  0  0  0  0  0  0  0  0  0  0  0
   12.2582   -7.8897    0.0000 O   0  0  0  0  0  0  0  0  0  0  0  0
   11.2640  -10.2900    0.0000 O   0  0  0  0  0  0  0  0  0  0  0  0
    9.8782   -9.7159    0.0000 C   0  0  0  0  0  0  0  0  0  0  0  0
    9.6824   -8.2288    0.0000 C   0  0  0  0  0  0  0  0  0  0  0  0
   10.8724   -7.3156    0.0000 C   0  0  0  0  0  0  0  0  0  0  0  0
    8.2966   -7.6548    0.0000 O   0  0  0  0  0  0  0  0  0  0  0  0
    7.1065   -8.5679    0.0000 C   0  0  0  0  0  0  0  0  0  0  0  0
    5.7207   -7.9939    0.0000 O   0  0  0  0  0  0  0  0  0  0  0  0
    5.5249   -6.5067    0.0000 C   0  0  0  0  0  0  0  0  0  0  0  0
    4.1391   -5.9327    0.0000 C   0  0  0  0  0  0  0  0  0  0  0  0
    2.9491   -6.8458    0.0000 C   0  0  0  0  0  0  0  0  0  0  0  0
    3.9433   -4.4455    0.0000 O   0  0  0  0  0  0  0  0  0  0  0  0
    5.1333   -3.5324    0.0000 C   0  0  0  0  0  0  0  0  0  0  0  0
    4.9376   -2.0452    0.0000 O   0  0  0  0  0  0  0  0  0  0  0  0
    3.5517   -1.4712    0.0000 C   0  0  0  0  0  0  0  0  0  0  0  0
    3.8444    0.0000    0.0000 C   0  0  0  0  0  0  0  0  0  0  0  0
    5.3444    0.0000    0.0000 C   0  0  0  0  0  0  0  0  0  0  0  0
    6.0944   -1.2990    0.0000 C   0  0  0  0  0  0  0  0  0  0  0  0
    7.5944   -1.2990    0.0000 O   0  0  0  0  0  0  0  0  0  0  0  0
    3.5517    1.4712    0.0000 C   0  0  0  0  0  0  0  0  0  0  0  0
    2.7184    2.7184    0.0000 C   0  0  0  0  0  0  0  0  0  0  0  0
    3.7790    3.7790    0.0000 C   0  0  0  0  0  0  0  0  0  0  0  0
    1.4712    3.5517    0.0000 C   0  0  0  0  0  0  0  0  0  0  0  0
    2.0452    4.9376    0.0000 O   0  0  0  0  0  0  0  0  0  0  0  0
    0.0000    3.8444    0.0000 C   0  0  0  0  0  0  0  0  0  0  0  0
   -1.4712    3.5517    0.0000 C   0  0  0  0  0  0  0  0  0  0  0  0
   -2.7184    2.7184    0.0000 C   0  0  0  0  0  0  0  0  0  0  0  0
   -3.5517    1.4712    0.0000 C   0  0  0  0  0  0  0  0  0  0  0  0
   -3.8444    0.0000    0.0000 C   0  0  0  0  0  0  0  0  0  0  0  0
   -3.5517   -1.4712    0.0000 C   0  0  0  0  0  0  0  0  0  0  0  0
   -4.9376   -2.0452    0.0000 C   0  0  0  0  0  0  0  0  0  0  0  0
   -2.7184   -2.7184    0.0000 O   0  0  0  0  0  0  0  0  0  0  0  0
   -1.4712   -3.5517    0.0000 C   0  0  0  0  0  0  0  0  0  0  0  0
   -2.0452   -4.9376    0.0000 O   0  0  0  0  0  0  0  0  0  0  0  0
   -0.0000   -3.8444    0.0000 C   0  0  0  0  0  0  0  0  0  0  0  0
    1.4712   -3.5517    0.0000 C   0  0  0  0  0  0  0  0  0  0  0  0
    2.0452   -4.9376    0.0000 O   0  0  0  0  0  0  0  0  0  0  0  0
    1.1321   -6.1276    0.0000 C   0  0  0  0  0  0  0  0  0  0  0  0
    1.7061   -7.5134    0.0000 C   0  0  0  0  0  0  0  0  0  0  0  0
   -0.3551   -5.9318    0.0000 O   0  0  0  0  0  0  0  0  0  0  0  0
    2.7184   -2.7184    0.0000 C   0  0  0  0  0  0  0  0  0  0  0  0
    3.7790   -3.7790    0.0000 O   0  0  0  0  0  0  0  0  0  0  0  0
    3.3908   -5.2279    0.0000 C   0  0  0  0  0  0  0  0  0  0  0  0
    6.5192   -4.1064    0.0000 C   0  0  0  0  0  0  0  0  0  0  0  0
    7.7092   -3.1933    0.0000 O   0  0  0  0  0  0  0  0  0  0  0  0
    6.7150   -5.5936    0.0000 C   0  0  0  0  0  0  0  0  0  0  0  0
    8.1008   -6.1676    0.0000 N   0  0  0  0  0  0  0  0  0  0  0  0
    8.6506   -7.5632    0.0000 C   0  0  0  0  0  0  0  0  0  0  0  0
    9.2908   -5.2544    0.0000 C   0  0  0  0  0  0  0  0  0  0  0  0
    7.3023  -10.0551    0.0000 C   0  0  0  0  0  0  0  0  0  0  0  0
    8.6881  -10.6291    0.0000 C   0  0  0  0  0  0  0  0  0  0  0  0
    7.8822  -11.8942    0.0000 C   0  0  0  0  0  0  0  0  0  0  0  0
    9.7941  -11.6425    0.0000 O   0  0  0  0  0  0  0  0  0  0  0  0
  1  2  1  0
  2  3  1  0
  3  4  2  0
  3  5  1  0
  5  6  1  0
  6  7  1  0
  7  8  1  0
  7  9  1  0
  9 10  1  0
 10 11  1  0
 11 12  1  0
 12 13  1  0
 13 14  1  0
 13 15  1  0
 15 16  1  0
 16 17  1  0
 17 18  1  0
 18 19  1  0
 19 20  1  0
 20 21  1  0
 21 22  2  0
 19 23  1  0
 23 24  1  0
 24 25  1  0
 24 26  1  0
 26 27  1  0
 26 28  1  0
 28 29  2  0
 29 30  1  0
 30 31  2  0
 31 32  1  0
 32 33  1  0
 33 34  1  0
 33 35  1  0
 35 36  1  0
 36 37  2  0
 36 38  1  0
 38 39  1  0
 39 40  1  0
 40 41  1  0
 41 42  1  0
 41 43  2  0
 39 44  1  0
 44 45  1  0
 45 46  1  0
 16 47  1  0
 47 48  1  0
 47 49  1  0
 49 50  1  0
 50 51  1  0
 50 52  1  0
 10 53  1  0
 53 54  1  0
 54 55  1  0
 54 56  1  0
 54  6  1  0
 49 12  1  0
 44 18  1  0
M  END
>  <ChEMBL_IDs>  (383) 
nan

>  <target_organism>  (383) 
nan

>  <target_molecule_pref_name>  (383) 
nan

>  <# Known Targets>  (383) 
nan

>  <Known Targets>  (383) 
nan

>  <smiles>  (383) 
CCC(=O)OC1C(C)OC(OC2C(C)OC(OC3C(CC=O)CC(C)C(O)/C=C\C=C/CC(C)OC(=O)CC(OC(C)=O)C3OC)C(O)C2N(C)C)CC1(C)O

$$$$

     RDKit          2D

 56 58  0  0  0  0  0  0  0  0999 V2000
   15.0299   -9.0377    0.0000 C   0  0  0  0  0  0  0  0  0  0  0  0
   13.8398   -9.9509    0.0000 C   0  0  0  0  0  0  0  0  0  0  0  0
   12.4540   -9.3768    0.0000 C   0  0  0  0  0  0  0  0  0  0  0  0
   12.2582   -7.8897    0.0000 O   0  0  0  0  0  0  0  0  0  0  0  0
   11.2640  -10.2900    0.0000 O   0  0  0  0  0  0  0  0  0  0  0  0
    9.8782   -9.7159    0.0000 C   0  0  0  0  0  0  0  0  0  0  0  0
    9.6824   -8.2288    0.0000 C   0  0  0  0  0  0  0  0  0  0  0  0
   10.8724   -7.3156    0.0000 C   0  0  0  0  0  0  0  0  0  0  0  0
    8.2966   -7.6548    0.0000 O   0  0  0  0  0  0  0  0  0  0  0  0
    7.1065   -8.5679    0.0000 C   0  0  0  0  0  0  0  0  0  0  0  0
    5.7207   -7.9939    0.0000 O   0  0  0  0  0  0  0  0  0  0  0  0
    5.5249   -6.5067    0.0000 C   0  0  0  0  0  0  0  0  0  0  0  0
    4.1391   -5.9327    0.0000 C   0  0  0  0  0  0  0  0  0  0  0  0
    2.9491   -6.8458    0.0000 C   0  0  0  0  0  0  0  0  0  0  0  0
    3.9433   -4.4455    0.0000 O   0  0  0  0  0  0  0  0  0  0  0  0
    5.1333   -3.5324    0.0000 C   0  0  0  0  0  0  0  0  0  0  0  0
    4.9376   -2.0452    0.0000 O   0  0  0  0  0  0  0  0  0  0  0  0
    3.5517   -1.4712    0.0000 C   0  0  0  0  0  0  0  0  0  0  0  0
    3.8444    0.0000    0.0000 C   0  0  0  0  0  0  0  0  0  0  0  0
    5.3444    0.0000    0.0000 C   0  0  0  0  0  0  0  0  0  0  0  0
    6.0944   -1.2990    0.0000 C   0  0  0  0  0  0  0  0  0  0  0  0
    7.5944   -1.2990    0.0000 O   0  0  0  0  0  0  0  0  0  0  0  0
    3.5517    1.4712    0.0000 C   0  0  0  0  0  0  0  0  0  0  0  0
    2.7184    2.7184    0.0000 C   0  0  0  0  0  0  0  0  0  0  0  0
    3.7790    3.7790    0.0000 C   0  0  0  0  0  0  0  0  0  0  0  0
    1.4712    3.5517    0.0000 C   0  0  0  0  0  0  0  0  0  0  0  0
    2.0452    4.9376    0.0000 O   0  0  0  0  0  0  0  0  0  0  0  0
    0.0000    3.8444    0.0000 C   0  0  0  0  0  0  0  0  0  0  0  0
   -1.4712    3.5517    0.0000 C   0  0  0  0  0  0  0  0  0  0  0  0
   -2.7184    2.7184    0.0000 C   0  0  0  0  0  0  0  0  0  0  0  0
   -3.5517    1.4712    0.0000 C   0  0  0  0  0  0  0  0  0  0  0  0
   -3.8444    0.0000    0.0000 C   0  0  0  0  0  0  0  0  0  0  0  0
   -3.5517   -1.4712    0.0000 C   0  0  0  0  0  0  0  0  0  0  0  0
   -4.9376   -2.0452    0.0000 C   0  0  0  0  0  0  0  0  0  0  0  0
   -2.7184   -2.7184    0.0000 O   0  0  0  0  0  0  0  0  0  0  0  0
   -1.4712   -3.5517    0.0000 C   0  0  0  0  0  0  0  0  0  0  0  0
   -2.0452   -4.9376    0.0000 O   0  0  0  0  0  0  0  0  0  0  0  0
   -0.0000   -3.8444    0.0000 C   0  0  0  0  0  0  0  0  0  0  0  0
    1.4712   -3.5517    0.0000 C   0  0  0  0  0  0  0  0  0  0  0  0
    2.0452   -4.9376    0.0000 O   0  0  0  0  0  0  0  0  0  0  0  0
    1.1321   -6.1276    0.0000 C   0  0  0  0  0  0  0  0  0  0  0  0
    1.7061   -7.5134    0.0000 C   0  0  0  0  0  0  0  0  0  0  0  0
   -0.3551   -5.9318    0.0000 O   0  0  0  0  0  0  0  0  0  0  0  0
    2.7184   -2.7184    0.0000 C   0  0  0  0  0  0  0  0  0  0  0  0
    3.7790   -3.7790    0.0000 O   0  0  0  0  0  0  0  0  0  0  0  0
    3.3908   -5.2279    0.0000 C   0  0  0  0  0  0  0  0  0  0  0  0
    6.5192   -4.1064    0.0000 C   0  0  0  0  0  0  0  0  0  0  0  0
    7.7092   -3.1933    0.0000 O   0  0  0  0  0  0  0  0  0  0  0  0
    6.7150   -5.5936    0.0000 C   0  0  0  0  0  0  0  0  0  0  0  0
    8.1008   -6.1676    0.0000 N   0  0  0  0  0  0  0  0  0  0  0  0
    8.6506   -7.5632    0.0000 C   0  0  0  0  0  0  0  0  0  0  0  0
    9.2908   -5.2544    0.0000 C   0  0  0  0  0  0  0  0  0  0  0  0
    7.3023  -10.0551    0.0000 C   0  0  0  0  0  0  0  0  0  0  0  0
    8.6881  -10.6291    0.0000 C   0  0  0  0  0  0  0  0  0  0  0  0
    7.8822  -11.8942    0.0000 C   0  0  0  0  0  0  0  0  0  0  0  0
    9.7941  -11.6425    0.0000 O   0  0  0  0  0  0  0  0  0  0  0  0
  1  2  1  0
  2  3  1  0
  3  4  2  0
  3  5  1  0
  5  6  1  0
  6  7  1  0
  7  8  1  0
  7  9  1  0
  9 10  1  0
 10 11  1  0
 11 12  1  0
 12 13  1  0
 13 14  1  0
 13 15  1  0
 15 16  1  0
 16 17  1  0
 17 18  1  0
 18 19  1  0
 19 20  1  0
 20 21  1  0
 21 22  1  0
 19 23  1  0
 23 24  1  0
 24 25  1  0
 24 26  1  0
 26 27  2  0
 26 28  1  0
 28 29  2  0
 29 30  1  0
 30 31  2  0
 31 32  1  0
 32 33  1  0
 33 34  1  0
 33 35  1  0
 35 36  1  0
 36 37  2  0
 36 38  1  0
 38 39  1  0
 39 40  1  0
 40 41  1  0
 41 42  1  0
 41 43  2  0
 39 44  1  0
 44 45  1  0
 45 46  1  0
 16 47  1  0
 47 48  1  0
 47 49  1  0
 49 50  1  0
 50 51  1  0
 50 52  1  0
 10 53  1  0
 53 54  1  0
 54 55  1  0
 54 56  1  0
 54  6  1  0
 49 12  1  0
 44 18  1  0
M  END
>  <ChEMBL_IDs>  (384) 
nan

>  <target_organism>  (384) 
nan

>  <target_molecule_pref_name>  (384) 
nan

>  <# Known Targets>  (384) 
nan

>  <Known Targets>  (384) 
nan

>  <smiles>  (384) 
CCC(=O)OC1C(C)OC(OC2C(C)OC(OC3C(CCO)CC(C)C(=O)/C=C\C=C/CC(C)OC(=O)CC(OC(C)=O)C3OC)C(O)C2N(C)C)CC1(C)O

$$$$

     RDKit          2D

 56 58  0  0  0  0  0  0  0  0999 V2000
    6.0944   -1.2990    0.0000 C   0  0  0  0  0  0  0  0  0  0  0  0
    5.3444    0.0000    0.0000 C   0  0  0  0  0  0  0  0  0  0  0  0
    3.8444    0.0000    0.0000 C   0  0  0  0  0  0  0  0  0  0  0  0
    3.5517   -1.4712    0.0000 O   0  0  0  0  0  0  0  0  0  0  0  0
    2.7184   -2.7184    0.0000 C   0  0  0  0  0  0  0  0  0  0  0  0
    3.7790   -3.7790    0.0000 O   0  0  0  0  0  0  0  0  0  0  0  0
    1.4712   -3.5517    0.0000 C   0  0  0  0  0  0  0  0  0  0  0  0
   -0.0000   -3.8444    0.0000 C   0  0  0  0  0  0  0  0  0  0  0  0
   -0.0000   -5.3444    0.0000 O   0  0  0  0  0  0  0  0  0  0  0  0
   -1.4712   -3.5517    0.0000 C   0  0  0  0  0  0  0  0  0  0  0  0
   -1.6507   -4.7534    0.0000 C   0  0  0  0  0  0  0  0  0  0  0  0
   -2.7184   -2.7184    0.0000 C   0  0  0  0  0  0  0  0  0  0  0  0
   -3.7790   -3.7790    0.0000 O   0  0  0  0  0  0  0  0  0  0  0  0
   -3.3908   -5.2279    0.0000 C   0  0  0  0  0  0  0  0  0  0  0  0
   -1.9419   -5.6162    0.0000 O   0  0  0  0  0  0  0  0  0  0  0  0
   -1.5537   -7.0650    0.0000 C   0  0  0  0  0  0  0  0  0  0  0  0
   -0.1048   -7.4533    0.0000 C   0  0  0  0  0  0  0  0  0  0  0  0
   -2.6144   -8.1257    0.0000 C   0  0  0  0  0  0  0  0  0  0  0  0
   -2.2261   -9.5746    0.0000 O   0  0  0  0  0  0  0  0  0  0  0  0
   -4.0632   -7.7375    0.0000 C   0  0  0  0  0  0  0  0  0  0  0  0
   -5.1239   -8.7981    0.0000 N   0  0  0  0  0  0  0  0  0  0  0  0
   -6.5728   -8.4099    0.0000 C   0  0  0  0  0  0  0  0  0  0  0  0
   -4.7357  -10.2470    0.0000 C   0  0  0  0  0  0  0  0  0  0  0  0
   -5.7963  -11.3077    0.0000 C   0  0  0  0  0  0  0  0  0  0  0  0
   -3.2868  -10.6353    0.0000 O   0  0  0  0  0  0  0  0  0  0  0  0
   -4.4515   -6.2886    0.0000 C   0  0  0  0  0  0  0  0  0  0  0  0
   -5.9004   -5.9004    0.0000 O   0  0  0  0  0  0  0  0  0  0  0  0
   -3.5517   -1.4712    0.0000 C   0  0  0  0  0  0  0  0  0  0  0  0
   -4.9376   -2.0452    0.0000 C   0  0  0  0  0  0  0  0  0  0  0  0
   -6.1276   -1.1321    0.0000 C   0  0  0  0  0  0  0  0  0  0  0  0
   -7.5134   -1.7061    0.0000 O   0  0  0  0  0  0  0  0  0  0  0  0
   -3.8444    0.0000    0.0000 C   0  0  0  0  0  0  0  0  0  0  0  0
   -3.5517    1.4712    0.0000 C   0  0  0  0  0  0  0  0  0  0  0  0
   -4.9376    2.0452    0.0000 C   0  0  0  0  0  0  0  0  0  0  0  0
   -2.7184    2.7184    0.0000 C   0  0  0  0  0  0  0  0  0  0  0  0
   -3.7790    3.7790    0.0000 O   0  0  0  0  0  0  0  0  0  0  0  0
   -1.4712    3.5517    0.0000 C   0  0  0  0  0  0  0  0  0  0  0  0
    0.0000    3.8444    0.0000 C   0  0  0  0  0  0  0  0  0  0  0  0
    1.4712    3.5517    0.0000 C   0  0  0  0  0  0  0  0  0  0  0  0
    2.0452    4.9376    0.0000 C   0  0  0  0  0  0  0  0  0  0  0  0
    2.7184    2.7184    0.0000 C   0  0  0  0  0  0  0  0  0  0  0  0
    3.5517    1.4712    0.0000 C   0  0  0  0  0  0  0  0  0  0  0  0
    4.9376    2.0452    0.0000 C   0  0  0  0  0  0  0  0  0  0  0  0
    6.1276    1.1321    0.0000 O   0  0  0  0  0  0  0  0  0  0  0  0
    7.5134    1.7061    0.0000 C   0  0  0  0  0  0  0  0  0  0  0  0
    8.7034    0.7929    0.0000 O   0  0  0  0  0  0  0  0  0  0  0  0
   10.0893    1.3670    0.0000 C   0  0  0  0  0  0  0  0  0  0  0  0
   11.2793    0.4538    0.0000 C   0  0  0  0  0  0  0  0  0  0  0  0
   10.2850    2.8541    0.0000 C   0  0  0  0  0  0  0  0  0  0  0  0
   11.6709    3.4282    0.0000 O   0  0  0  0  0  0  0  0  0  0  0  0
    9.0950    3.7673    0.0000 C   0  0  0  0  0  0  0  0  0  0  0  0
    9.2908    5.2544    0.0000 O   0  0  0  0  0  0  0  0  0  0  0  0
    8.1008    6.1676    0.0000 C   0  0  0  0  0  0  0  0  0  0  0  0
    7.7092    3.1933    0.0000 C   0  0  0  0  0  0  0  0  0  0  0  0
    6.5192    4.1064    0.0000 O   0  0  0  0  0  0  0  0  0  0  0  0
    6.7150    5.5936    0.0000 C   0  0  0  0  0  0  0  0  0  0  0  0
  1  2  1  0
  3  2  1  1
  3  4  1  0
  4  5  1  0
  5  6  2  0
  5  7  1  0
  7  8  1  0
  8  9  1  1
  8 10  1  0
 10 11  1  6
 10 12  1  0
 12 13  1  1
 13 14  1  0
 14 15  1  0
 15 16  1  0
 16 17  1  0
 16 18  1  0
 18 19  1  0
 18 20  1  0
 20 21  1  0
 21 22  1  0
 21 23  1  0
 23 24  1  0
 23 25  2  0
 20 26  1  0
 26 27  1  0
 12 28  1  0
 28 29  1  1
 29 30  1  0
 30 31  2  0
 28 32  1  0
 32 33  1  0
 33 34  1  1
 33 35  1  0
 35 36  2  0
 35 37  1  0
 37 38  2  0
 38 39  1  0
 39 40  1  0
 39 41  2  0
 41 42  1  0
 42 43  1  6
 43 44  1  0
 44 45  1  0
 45 46  1  0
 46 47  1  0
 47 48  1  0
 47 49  1  0
 49 50  1  0
 49 51  1  0
 51 52  1  0
 52 53  1  0
 51 54  1  0
 54 55  1  0
 55 56  1  0
 42  3  1  0
 54 45  1  0
 26 14  1  0
M  END
>  <ChEMBL_IDs>  (385) 
CHEMBL136820

>  <target_organism>  (385) 
nan

>  <target_molecule_pref_name>  (385) 
nan

>  <# Known Targets>  (385) 
nan

>  <Known Targets>  (385) 
nan

>  <smiles>  (385) 
CC[C@H]1OC(=O)C[C@@H](O)[C@H](C)[C@@H](OC2OC(C)C(O)C(N(C)C(C)=O)C2O)[C@@H](CC=O)C[C@@H](C)C(=O)/C=C/C(C)=C/[C@@H]1COC1OC(C)C(O)C(OC)C1OC

$$$$

     RDKit          2D

 55 57  0  0  0  0  0  0  0  0999 V2000
   -5.5769  -11.7506    0.0000 C   0  0  0  0  0  0  0  0  0  0  0  0
   -4.1911  -12.3247    0.0000 C   0  0  0  0  0  0  0  0  0  0  0  0
   -3.0011  -11.4115    0.0000 C   0  0  0  0  0  0  0  0  0  0  0  0
   -1.6153  -11.9856    0.0000 C   0  0  0  0  0  0  0  0  0  0  0  0
   -0.4252  -11.0724    0.0000 C   0  0  0  0  0  0  0  0  0  0  0  0
   -0.6210   -9.5852    0.0000 O   0  0  0  0  0  0  0  0  0  0  0  0
    0.9606  -11.6464    0.0000 O   0  0  0  0  0  0  0  0  0  0  0  0
    2.1506  -10.7333    0.0000 C   0  0  0  0  0  0  0  0  0  0  0  0
    1.9548   -9.2461    0.0000 C   0  0  0  0  0  0  0  0  0  0  0  0
    0.5690   -8.6721    0.0000 C   0  0  0  0  0  0  0  0  0  0  0  0
    3.1449   -8.3330    0.0000 O   0  0  0  0  0  0  0  0  0  0  0  0
    4.5307   -8.9070    0.0000 C   0  0  0  0  0  0  0  0  0  0  0  0
    5.7207   -7.9939    0.0000 O   0  0  0  0  0  0  0  0  0  0  0  0
    5.5249   -6.5067    0.0000 C   0  0  0  0  0  0  0  0  0  0  0  0
    6.7150   -5.5936    0.0000 C   0  0  0  0  0  0  0  0  0  0  0  0
    8.1008   -6.1676    0.0000 C   0  0  0  0  0  0  0  0  0  0  0  0
    6.5192   -4.1064    0.0000 O   0  0  0  0  0  0  0  0  0  0  0  0
    5.1333   -3.5324    0.0000 C   0  0  0  0  0  0  0  0  0  0  0  0
    4.9376   -2.0452    0.0000 O   0  0  0  0  0  0  0  0  0  0  0  0
    6.1276   -1.1321    0.0000 C   0  0  0  0  0  0  0  0  0  0  0  0
    5.4642    0.2132    0.0000 C   0  0  0  0  0  0  0  0  0  0  0  0
    4.0153   -0.1750    0.0000 C   0  0  0  0  0  0  0  0  0  0  0  0
    3.6270   -1.6239    0.0000 C   0  0  0  0  0  0  0  0  0  0  0  0
    2.1781   -2.0121    0.0000 O   0  0  0  0  0  0  0  0  0  0  0  0
    5.3660    1.7100    0.0000 C   0  0  0  0  0  0  0  0  0  0  0  0
    5.8482    3.1304    0.0000 C   0  0  0  0  0  0  0  0  0  0  0  0
    4.5492    3.8804    0.0000 C   0  0  0  0  0  0  0  0  0  0  0  0
    6.8372    4.2582    0.0000 C   0  0  0  0  0  0  0  0  0  0  0  0
    5.9241    5.4482    0.0000 O   0  0  0  0  0  0  0  0  0  0  0  0
    8.1825    4.9216    0.0000 C   0  0  0  0  0  0  0  0  0  0  0  0
    9.6793    5.0197    0.0000 C   0  0  0  0  0  0  0  0  0  0  0  0
   11.0997    4.5376    0.0000 C   0  0  0  0  0  0  0  0  0  0  0  0
   12.2275    3.5486    0.0000 C   0  0  0  0  0  0  0  0  0  0  0  0
   12.8909    2.2032    0.0000 C   0  0  0  0  0  0  0  0  0  0  0  0
   12.9890    0.7065    0.0000 C   0  0  0  0  0  0  0  0  0  0  0  0
   14.4762    0.5107    0.0000 C   0  0  0  0  0  0  0  0  0  0  0  0
   12.5069   -0.7139    0.0000 O   0  0  0  0  0  0  0  0  0  0  0  0
   11.5178   -1.8417    0.0000 C   0  0  0  0  0  0  0  0  0  0  0  0
   12.4310   -3.0317    0.0000 O   0  0  0  0  0  0  0  0  0  0  0  0
   10.1725   -2.5051    0.0000 C   0  0  0  0  0  0  0  0  0  0  0  0
    8.6757   -2.6032    0.0000 C   0  0  0  0  0  0  0  0  0  0  0  0
    8.4800   -4.0904    0.0000 O   0  0  0  0  0  0  0  0  0  0  0  0
    7.2553   -2.1211    0.0000 C   0  0  0  0  0  0  0  0  0  0  0  0
    6.5053   -3.4201    0.0000 O   0  0  0  0  0  0  0  0  0  0  0  0
    7.2553   -4.7192    0.0000 C   0  0  0  0  0  0  0  0  0  0  0  0
    3.9433   -4.4455    0.0000 C   0  0  0  0  0  0  0  0  0  0  0  0
    2.5575   -3.8715    0.0000 O   0  0  0  0  0  0  0  0  0  0  0  0
    4.1391   -5.9327    0.0000 C   0  0  0  0  0  0  0  0  0  0  0  0
    2.9491   -6.8458    0.0000 N   0  0  0  0  0  0  0  0  0  0  0  0
    2.7792   -8.3362    0.0000 C   0  0  0  0  0  0  0  0  0  0  0  0
    1.5633   -6.2718    0.0000 C   0  0  0  0  0  0  0  0  0  0  0  0
    4.7265  -10.3942    0.0000 C   0  0  0  0  0  0  0  0  0  0  0  0
    3.5364  -11.3073    0.0000 C   0  0  0  0  0  0  0  0  0  0  0  0
    4.6424  -12.3207    0.0000 C   0  0  0  0  0  0  0  0  0  0  0  0
    2.7305  -12.5724    0.0000 O   0  0  0  0  0  0  0  0  0  0  0  0
  1  2  1  0
  2  3  1  0
  3  4  1  0
  4  5  1  0
  5  6  2  0
  5  7  1  0
  7  8  1  0
  8  9  1  0
  9 10  1  0
  9 11  1  0
 11 12  1  0
 12 13  1  0
 13 14  1  0
 14 15  1  0
 15 16  1  0
 15 17  1  0
 17 18  1  0
 18 19  1  0
 19 20  1  0
 20 21  1  0
 21 22  1  0
 22 23  1  0
 23 24  2  0
 21 25  1  0
 25 26  1  0
 26 27  1  0
 26 28  1  0
 28 29  1  0
 28 30  1  0
 30 31  2  0
 31 32  1  0
 32 33  2  0
 33 34  1  0
 34 35  1  0
 35 36  1  0
 35 37  1  0
 37 38  1  0
 38 39  2  0
 38 40  1  0
 40 41  1  0
 41 42  1  0
 41 43  1  0
 43 44  1  0
 44 45  1  0
 18 46  1  0
 46 47  1  0
 46 48  1  0
 48 49  1  0
 49 50  1  0
 49 51  1  0
 12 52  1  0
 52 53  1  0
 53 54  1  0
 53 55  1  0
 53  8  1  0
 48 14  1  0
 43 20  1  0
M  END
>  <ChEMBL_IDs>  (386) 
nan

>  <target_organism>  (386) 
nan

>  <target_molecule_pref_name>  (386) 
nan

>  <# Known Targets>  (386) 
nan

>  <Known Targets>  (386) 
nan

>  <smiles>  (386) 
CCCCC(=O)OC1C(C)OC(OC2C(C)OC(OC3C(CC=O)CC(C)C(O)/C=C\C=C/CC(C)OC(=O)CC(O)C3OC)C(O)C2N(C)C)CC1(C)O

$$$$

     RDKit          2D

 55 57  0  0  0  0  0  0  0  0999 V2000
    6.0944   -1.2990    0.0000 C   0  0  0  0  0  0  0  0  0  0  0  0
    5.3444    0.0000    0.0000 O   0  0  0  0  0  0  0  0  0  0  0  0
    3.8444    0.0000    0.0000 C   0  0  0  0  0  0  0  0  0  0  0  0
    3.5517   -1.4712    0.0000 C   0  0  0  0  0  0  0  0  0  0  0  0
    4.9376   -2.0452    0.0000 O   0  0  0  0  0  0  0  0  0  0  0  0
    2.7184   -2.7184    0.0000 C   0  0  0  0  0  0  0  0  0  0  0  0
    1.4712   -3.5517    0.0000 C   0  0  0  0  0  0  0  0  0  0  0  0
    2.0452   -4.9376    0.0000 O   0  0  0  0  0  0  0  0  0  0  0  0
   -0.0000   -3.8444    0.0000 O   0  0  0  0  0  0  0  0  0  0  0  0
   -1.4712   -3.5517    0.0000 C   0  0  0  0  0  0  0  0  0  0  0  0
   -2.0452   -4.9376    0.0000 C   0  0  0  0  0  0  0  0  0  0  0  0
   -2.7184   -2.7184    0.0000 C   0  0  0  0  0  0  0  0  0  0  0  0
   -3.5517   -1.4712    0.0000 C   0  0  0  0  0  0  0  0  0  0  0  0
   -3.8444    0.0000    0.0000 C   0  0  0  0  0  0  0  0  0  0  0  0
   -3.5517    1.4712    0.0000 C   0  0  0  0  0  0  0  0  0  0  0  0
   -2.7184    2.7184    0.0000 C   0  0  0  0  0  0  0  0  0  0  0  0
   -1.4712    3.5517    0.0000 C   0  0  0  0  0  0  0  0  0  0  0  0
   -2.0452    4.9376    0.0000 O   0  0  0  0  0  0  0  0  0  0  0  0
    0.0000    3.8444    0.0000 C   0  0  0  0  0  0  0  0  0  0  0  0
    0.0000    5.3444    0.0000 C   0  0  0  0  0  0  0  0  0  0  0  0
    1.4712    3.5517    0.0000 C   0  0  0  0  0  0  0  0  0  0  0  0
    2.7184    2.7184    0.0000 C   0  0  0  0  0  0  0  0  0  0  0  0
    3.7790    3.7790    0.0000 C   0  0  0  0  0  0  0  0  0  0  0  0
    5.2279    3.3908    0.0000 C   0  0  0  0  0  0  0  0  0  0  0  0
    6.2886    4.4515    0.0000 O   0  0  0  0  0  0  0  0  0  0  0  0
    3.5517    1.4712    0.0000 C   0  0  0  0  0  0  0  0  0  0  0  0
    4.9376    2.0452    0.0000 O   0  0  0  0  0  0  0  0  0  0  0  0
    6.1276    1.1321    0.0000 C   0  0  0  0  0  0  0  0  0  0  0  0
    5.9318   -0.3551    0.0000 O   0  0  0  0  0  0  0  0  0  0  0  0
    7.1218   -1.2682    0.0000 C   0  0  0  0  0  0  0  0  0  0  0  0
    6.9260   -2.7554    0.0000 C   0  0  0  0  0  0  0  0  0  0  0  0
    8.5076   -0.6942    0.0000 C   0  0  0  0  0  0  0  0  0  0  0  0
    9.6977   -1.6074    0.0000 O   0  0  0  0  0  0  0  0  0  0  0  0
   11.0835   -1.0333    0.0000 C   0  0  0  0  0  0  0  0  0  0  0  0
   12.2735   -1.9465    0.0000 C   0  0  0  0  0  0  0  0  0  0  0  0
   13.6593   -1.3725    0.0000 C   0  0  0  0  0  0  0  0  0  0  0  0
   15.1579   -1.3070    0.0000 C   0  0  0  0  0  0  0  0  0  0  0  0
   13.9840   -2.8369    0.0000 O   0  0  0  0  0  0  0  0  0  0  0  0
   13.8551    0.1147    0.0000 C   0  0  0  0  0  0  0  0  0  0  0  0
   15.2410    0.6887    0.0000 O   0  0  0  0  0  0  0  0  0  0  0  0
   15.4367    2.1759    0.0000 C   0  0  0  0  0  0  0  0  0  0  0  0
   14.2467    3.0890    0.0000 O   0  0  0  0  0  0  0  0  0  0  0  0
   16.8226    2.7499    0.0000 C   0  0  0  0  0  0  0  0  0  0  0  0
   17.0184    4.2371    0.0000 C   0  0  0  0  0  0  0  0  0  0  0  0
   18.4042    4.8111    0.0000 C   0  0  0  0  0  0  0  0  0  0  0  0
   15.8283    5.1502    0.0000 C   0  0  0  0  0  0  0  0  0  0  0  0
   12.6651    1.0279    0.0000 C   0  0  0  0  0  0  0  0  0  0  0  0
   12.8609    2.5150    0.0000 C   0  0  0  0  0  0  0  0  0  0  0  0
   11.2793    0.4538    0.0000 O   0  0  0  0  0  0  0  0  0  0  0  0
    8.7034    0.7929    0.0000 C   0  0  0  0  0  0  0  0  0  0  0  0
   10.0893    1.3670    0.0000 N   0  0  0  0  0  0  0  0  0  0  0  0
   10.2850    2.8541    0.0000 C   0  0  0  0  0  0  0  0  0  0  0  0
   11.4649    0.7689    0.0000 C   0  0  0  0  0  0  0  0  0  0  0  0
    7.5134    1.7061    0.0000 C   0  0  0  0  0  0  0  0  0  0  0  0
    7.7092    3.1933    0.0000 O   0  0  0  0  0  0  0  0  0  0  0  0
  1  2  1  0
  2  3  1  0
  3  4  1  0
  4  5  1  0
  4  6  1  0
  6  7  1  0
  7  8  2  0
  7  9  1  0
  9 10  1  0
 10 11  1  0
 10 12  1  0
 12 13  1  0
 13 14  2  0
 14 15  1  0
 15 16  2  0
 16 17  1  0
 17 18  1  0
 17 19  1  0
 19 20  1  0
 19 21  1  0
 21 22  1  0
 22 23  1  0
 23 24  1  0
 24 25  2  0
 22 26  1  0
 26 27  1  0
 27 28  1  0
 28 29  1  0
 29 30  1  0
 30 31  1  0
 30 32  1  0
 32 33  1  0
 33 34  1  0
 34 35  1  0
 35 36  1  0
 36 37  1  0
 36 38  1  0
 36 39  1  0
 39 40  1  0
 40 41  1  0
 41 42  2  0
 41 43  1  0
 43 44  1  0
 44 45  1  0
 44 46  1  0
 39 47  1  0
 47 48  1  0
 47 49  1  0
 32 50  1  0
 50 51  1  0
 51 52  1  0
 51 53  1  0
 50 54  1  0
 54 55  1  0
 26  3  1  0
 54 28  1  0
 49 34  1  0
M  END
>  <ChEMBL_IDs>  (387) 
nan

>  <target_organism>  (387) 
nan

>  <target_molecule_pref_name>  (387) 
nan

>  <# Known Targets>  (387) 
nan

>  <Known Targets>  (387) 
nan

>  <smiles>  (387) 
COC1C(O)CC(=O)OC(C)C/C=C\C=C/C(O)C(C)CC(CC=O)C1OC1OC(C)C(OC2CC(C)(O)C(OC(=O)CC(C)C)C(C)O2)C(N(C)C)C1O

$$$$

     RDKit          2D

 55 57  0  0  0  0  0  0  0  0999 V2000
    6.0944   -1.2990    0.0000 C   0  0  0  0  0  0  0  0  0  0  0  0
    5.3444    0.0000    0.0000 O   0  0  0  0  0  0  0  0  0  0  0  0
    3.8444    0.0000    0.0000 C   0  0  0  0  0  0  0  0  0  0  0  0
    3.5517   -1.4712    0.0000 C   0  0  0  0  0  0  0  0  0  0  0  0
    4.9376   -2.0452    0.0000 O   0  0  0  0  0  0  0  0  0  0  0  0
    2.7184   -2.7184    0.0000 C   0  0  0  0  0  0  0  0  0  0  0  0
    1.4712   -3.5517    0.0000 C   0  0  0  0  0  0  0  0  0  0  0  0
    2.0452   -4.9376    0.0000 O   0  0  0  0  0  0  0  0  0  0  0  0
   -0.0000   -3.8444    0.0000 O   0  0  0  0  0  0  0  0  0  0  0  0
   -1.4712   -3.5517    0.0000 C   0  0  0  0  0  0  0  0  0  0  0  0
   -2.0452   -4.9376    0.0000 C   0  0  0  0  0  0  0  0  0  0  0  0
   -2.7184   -2.7184    0.0000 C   0  0  0  0  0  0  0  0  0  0  0  0
   -3.5517   -1.4712    0.0000 C   0  0  0  0  0  0  0  0  0  0  0  0
   -3.8444    0.0000    0.0000 C   0  0  0  0  0  0  0  0  0  0  0  0
   -3.5517    1.4712    0.0000 C   0  0  0  0  0  0  0  0  0  0  0  0
   -2.7184    2.7184    0.0000 C   0  0  0  0  0  0  0  0  0  0  0  0
   -1.4712    3.5517    0.0000 C   0  0  0  0  0  0  0  0  0  0  0  0
   -2.0452    4.9376    0.0000 O   0  0  0  0  0  0  0  0  0  0  0  0
    0.0000    3.8444    0.0000 C   0  0  0  0  0  0  0  0  0  0  0  0
    0.0000    5.3444    0.0000 C   0  0  0  0  0  0  0  0  0  0  0  0
    1.4712    3.5517    0.0000 C   0  0  0  0  0  0  0  0  0  0  0  0
    2.7184    2.7184    0.0000 C   0  0  0  0  0  0  0  0  0  0  0  0
    3.7790    3.7790    0.0000 C   0  0  0  0  0  0  0  0  0  0  0  0
    5.2279    3.3908    0.0000 C   0  0  0  0  0  0  0  0  0  0  0  0
    6.2886    4.4515    0.0000 O   0  0  0  0  0  0  0  0  0  0  0  0
    3.5517    1.4712    0.0000 C   0  0  0  0  0  0  0  0  0  0  0  0
    4.9376    2.0452    0.0000 O   0  0  0  0  0  0  0  0  0  0  0  0
    6.1276    1.1321    0.0000 C   0  0  0  0  0  0  0  0  0  0  0  0
    5.9318   -0.3551    0.0000 O   0  0  0  0  0  0  0  0  0  0  0  0
    7.1218   -1.2682    0.0000 C   0  0  0  0  0  0  0  0  0  0  0  0
    6.9260   -2.7554    0.0000 C   0  0  0  0  0  0  0  0  0  0  0  0
    8.5076   -0.6942    0.0000 C   0  0  0  0  0  0  0  0  0  0  0  0
    9.6977   -1.6074    0.0000 O   0  0  0  0  0  0  0  0  0  0  0  0
   11.0835   -1.0333    0.0000 C   0  0  0  0  0  0  0  0  0  0  0  0
   12.2735   -1.9465    0.0000 C   0  0  0  0  0  0  0  0  0  0  0  0
   13.6593   -1.3725    0.0000 C   0  0  0  0  0  0  0  0  0  0  0  0
   15.1579   -1.3070    0.0000 C   0  0  0  0  0  0  0  0  0  0  0  0
   13.9840   -2.8369    0.0000 O   0  0  0  0  0  0  0  0  0  0  0  0
   13.8551    0.1147    0.0000 C   0  0  0  0  0  0  0  0  0  0  0  0
   15.2410    0.6887    0.0000 O   0  0  0  0  0  0  0  0  0  0  0  0
   15.4367    2.1759    0.0000 C   0  0  0  0  0  0  0  0  0  0  0  0
   14.2467    3.0890    0.0000 O   0  0  0  0  0  0  0  0  0  0  0  0
   16.8226    2.7499    0.0000 C   0  0  0  0  0  0  0  0  0  0  0  0
   17.0184    4.2371    0.0000 C   0  0  0  0  0  0  0  0  0  0  0  0
   18.4042    4.8111    0.0000 C   0  0  0  0  0  0  0  0  0  0  0  0
   15.8283    5.1502    0.0000 C   0  0  0  0  0  0  0  0  0  0  0  0
   12.6651    1.0279    0.0000 C   0  0  0  0  0  0  0  0  0  0  0  0
   12.8609    2.5150    0.0000 C   0  0  0  0  0  0  0  0  0  0  0  0
   11.2793    0.4538    0.0000 O   0  0  0  0  0  0  0  0  0  0  0  0
    8.7034    0.7929    0.0000 C   0  0  0  0  0  0  0  0  0  0  0  0
   10.0893    1.3670    0.0000 N   0  0  0  0  0  0  0  0  0  0  0  0
   10.2850    2.8541    0.0000 C   0  0  0  0  0  0  0  0  0  0  0  0
   11.4649    0.7689    0.0000 C   0  0  0  0  0  0  0  0  0  0  0  0
    7.5134    1.7061    0.0000 C   0  0  0  0  0  0  0  0  0  0  0  0
    7.7092    3.1933    0.0000 O   0  0  0  0  0  0  0  0  0  0  0  0
  1  2  1  0
  2  3  1  0
  3  4  1  0
  4  5  1  0
  4  6  1  0
  6  7  1  0
  7  8  2  0
  7  9  1  0
  9 10  1  0
 10 11  1  0
 10 12  1  0
 12 13  1  0
 13 14  2  0
 14 15  1  0
 15 16  2  0
 16 17  1  0
 17 18  1  0
 17 19  1  0
 19 20  1  0
 19 21  1  0
 21 22  1  0
 22 23  1  0
 23 24  1  0
 24 25  2  0
 22 26  1  0
 26 27  1  0
 27 28  1  0
 28 29  1  0
 29 30  1  0
 30 31  1  0
 30 32  1  0
 32 33  1  0
 33 34  1  0
 34 35  1  0
 35 36  1  0
 36 37  1  0
 36 38  1  0
 36 39  1  0
 39 40  1  0
 40 41  1  0
 41 42  2  0
 41 43  1  0
 43 44  1  0
 44 45  1  0
 44 46  1  0
 39 47  1  0
 47 48  1  0
 47 49  1  0
 32 50  1  0
 50 51  1  0
 51 52  1  0
 51 53  1  0
 50 54  1  0
 54 55  1  0
 26  3  1  0
 54 28  1  0
 49 34  1  0
M  END
>  <ChEMBL_IDs>  (388) 
nan

>  <target_organism>  (388) 
nan

>  <target_molecule_pref_name>  (388) 
nan

>  <# Known Targets>  (388) 
nan

>  <Known Targets>  (388) 
nan

>  <smiles>  (388) 
COC1C(O)CC(=O)OC(C)C/C=C\C=C/C(O)C(C)CC(CC=O)C1OC1OC(C)C(OC2CC(C)(O)C(OC(=O)CC(C)C)C(C)O2)C(N(C)C)C1O

$$$$

     RDKit          2D

 55 57  0  0  0  0  0  0  0  0999 V2000
    6.0944   -1.2990    0.0000 C   0  0  0  0  0  0  0  0  0  0  0  0
    5.3444    0.0000    0.0000 O   0  0  0  0  0  0  0  0  0  0  0  0
    3.8444    0.0000    0.0000 C   0  0  0  0  0  0  0  0  0  0  0  0
    3.5517   -1.4712    0.0000 C   0  0  0  0  0  0  0  0  0  0  0  0
    4.9376   -2.0452    0.0000 O   0  0  0  0  0  0  0  0  0  0  0  0
    2.7184   -2.7184    0.0000 C   0  0  0  0  0  0  0  0  0  0  0  0
    1.4712   -3.5517    0.0000 C   0  0  0  0  0  0  0  0  0  0  0  0
    2.0452   -4.9376    0.0000 O   0  0  0  0  0  0  0  0  0  0  0  0
   -0.0000   -3.8444    0.0000 O   0  0  0  0  0  0  0  0  0  0  0  0
   -1.4712   -3.5517    0.0000 C   0  0  0  0  0  0  0  0  0  0  0  0
   -2.0452   -4.9376    0.0000 C   0  0  0  0  0  0  0  0  0  0  0  0
   -2.7184   -2.7184    0.0000 C   0  0  0  0  0  0  0  0  0  0  0  0
   -3.5517   -1.4712    0.0000 C   0  0  0  0  0  0  0  0  0  0  0  0
   -3.8444    0.0000    0.0000 C   0  0  0  0  0  0  0  0  0  0  0  0
   -3.5517    1.4712    0.0000 C   0  0  0  0  0  0  0  0  0  0  0  0
   -2.7184    2.7184    0.0000 C   0  0  0  0  0  0  0  0  0  0  0  0
   -1.4712    3.5517    0.0000 C   0  0  0  0  0  0  0  0  0  0  0  0
   -2.0452    4.9376    0.0000 O   0  0  0  0  0  0  0  0  0  0  0  0
    0.0000    3.8444    0.0000 C   0  0  0  0  0  0  0  0  0  0  0  0
    0.0000    5.3444    0.0000 C   0  0  0  0  0  0  0  0  0  0  0  0
    1.4712    3.5517    0.0000 C   0  0  0  0  0  0  0  0  0  0  0  0
    2.7184    2.7184    0.0000 C   0  0  0  0  0  0  0  0  0  0  0  0
    3.7790    3.7790    0.0000 C   0  0  0  0  0  0  0  0  0  0  0  0
    5.2279    3.3908    0.0000 C   0  0  0  0  0  0  0  0  0  0  0  0
    6.2886    4.4515    0.0000 O   0  0  0  0  0  0  0  0  0  0  0  0
    3.5517    1.4712    0.0000 C   0  0  0  0  0  0  0  0  0  0  0  0
    4.9376    2.0452    0.0000 O   0  0  0  0  0  0  0  0  0  0  0  0
    6.1276    1.1321    0.0000 C   0  0  0  0  0  0  0  0  0  0  0  0
    5.9318   -0.3551    0.0000 O   0  0  0  0  0  0  0  0  0  0  0  0
    7.1218   -1.2682    0.0000 C   0  0  0  0  0  0  0  0  0  0  0  0
    6.9260   -2.7554    0.0000 C   0  0  0  0  0  0  0  0  0  0  0  0
    8.5076   -0.6942    0.0000 C   0  0  0  0  0  0  0  0  0  0  0  0
    9.6977   -1.6074    0.0000 O   0  0  0  0  0  0  0  0  0  0  0  0
   11.0835   -1.0333    0.0000 C   0  0  0  0  0  0  0  0  0  0  0  0
   12.2735   -1.9465    0.0000 C   0  0  0  0  0  0  0  0  0  0  0  0
   13.6593   -1.3725    0.0000 C   0  0  0  0  0  0  0  0  0  0  0  0
   15.1579   -1.3070    0.0000 C   0  0  0  0  0  0  0  0  0  0  0  0
   13.9840   -2.8369    0.0000 O   0  0  0  0  0  0  0  0  0  0  0  0
   13.8551    0.1147    0.0000 C   0  0  0  0  0  0  0  0  0  0  0  0
   15.2410    0.6887    0.0000 O   0  0  0  0  0  0  0  0  0  0  0  0
   15.4367    2.1759    0.0000 C   0  0  0  0  0  0  0  0  0  0  0  0
   14.2467    3.0890    0.0000 O   0  0  0  0  0  0  0  0  0  0  0  0
   16.8226    2.7499    0.0000 C   0  0  0  0  0  0  0  0  0  0  0  0
   17.0184    4.2371    0.0000 C   0  0  0  0  0  0  0  0  0  0  0  0
   18.4042    4.8111    0.0000 C   0  0  0  0  0  0  0  0  0  0  0  0
   15.8283    5.1502    0.0000 C   0  0  0  0  0  0  0  0  0  0  0  0
   12.6651    1.0279    0.0000 C   0  0  0  0  0  0  0  0  0  0  0  0
   12.8609    2.5150    0.0000 C   0  0  0  0  0  0  0  0  0  0  0  0
   11.2793    0.4538    0.0000 O   0  0  0  0  0  0  0  0  0  0  0  0
    8.7034    0.7929    0.0000 C   0  0  0  0  0  0  0  0  0  0  0  0
   10.0893    1.3670    0.0000 N   0  0  0  0  0  0  0  0  0  0  0  0
   10.2850    2.8541    0.0000 C   0  0  0  0  0  0  0  0  0  0  0  0
   11.4649    0.7689    0.0000 C   0  0  0  0  0  0  0  0  0  0  0  0
    7.5134    1.7061    0.0000 C   0  0  0  0  0  0  0  0  0  0  0  0
    7.7092    3.1933    0.0000 O   0  0  0  0  0  0  0  0  0  0  0  0
  1  2  1  0
  2  3  1  0
  3  4  1  0
  4  5  1  0
  4  6  1  0
  6  7  1  0
  7  8  2  0
  7  9  1  0
  9 10  1  0
 10 11  1  0
 10 12  1  0
 12 13  1  0
 13 14  2  0
 14 15  1  0
 15 16  2  0
 16 17  1  0
 17 18  1  0
 17 19  1  0
 19 20  1  0
 19 21  1  0
 21 22  1  0
 22 23  1  0
 23 24  1  0
 24 25  2  0
 22 26  1  0
 26 27  1  0
 27 28  1  0
 28 29  1  0
 29 30  1  0
 30 31  1  0
 30 32  1  0
 32 33  1  0
 33 34  1  0
 34 35  1  0
 35 36  1  0
 36 37  1  0
 36 38  1  0
 36 39  1  0
 39 40  1  0
 40 41  1  0
 41 42  2  0
 41 43  1  0
 43 44  1  0
 44 45  1  0
 44 46  1  0
 39 47  1  0
 47 48  1  0
 47 49  1  0
 32 50  1  0
 50 51  1  0
 51 52  1  0
 51 53  1  0
 50 54  1  0
 54 55  1  0
 26  3  1  0
 54 28  1  0
 49 34  1  0
M  END
>  <ChEMBL_IDs>  (389) 
nan

>  <target_organism>  (389) 
nan

>  <target_molecule_pref_name>  (389) 
nan

>  <# Known Targets>  (389) 
nan

>  <Known Targets>  (389) 
nan

>  <smiles>  (389) 
COC1C(O)CC(=O)OC(C)C/C=C\C=C/C(O)C(C)CC(CC=O)C1OC1OC(C)C(OC2CC(C)(O)C(OC(=O)CC(C)C)C(C)O2)C(N(C)C)C1O

$$$$

     RDKit          2D

 55 57  0  0  0  0  0  0  0  0999 V2000
    6.0944   -1.2990    0.0000 C   0  0  0  0  0  0  0  0  0  0  0  0
    5.3444    0.0000    0.0000 O   0  0  0  0  0  0  0  0  0  0  0  0
    3.8444    0.0000    0.0000 C   0  0  0  0  0  0  0  0  0  0  0  0
    3.5517   -1.4712    0.0000 C   0  0  0  0  0  0  0  0  0  0  0  0
    4.9376   -2.0452    0.0000 O   0  0  0  0  0  0  0  0  0  0  0  0
    2.7184   -2.7184    0.0000 C   0  0  0  0  0  0  0  0  0  0  0  0
    1.4712   -3.5517    0.0000 C   0  0  0  0  0  0  0  0  0  0  0  0
    2.0452   -4.9376    0.0000 O   0  0  0  0  0  0  0  0  0  0  0  0
   -0.0000   -3.8444    0.0000 O   0  0  0  0  0  0  0  0  0  0  0  0
   -1.4712   -3.5517    0.0000 C   0  0  0  0  0  0  0  0  0  0  0  0
   -2.0452   -4.9376    0.0000 C   0  0  0  0  0  0  0  0  0  0  0  0
   -2.7184   -2.7184    0.0000 C   0  0  0  0  0  0  0  0  0  0  0  0
   -3.5517   -1.4712    0.0000 C   0  0  0  0  0  0  0  0  0  0  0  0
   -3.8444    0.0000    0.0000 C   0  0  0  0  0  0  0  0  0  0  0  0
   -3.5517    1.4712    0.0000 C   0  0  0  0  0  0  0  0  0  0  0  0
   -2.7184    2.7184    0.0000 C   0  0  0  0  0  0  0  0  0  0  0  0
   -1.4712    3.5517    0.0000 C   0  0  0  0  0  0  0  0  0  0  0  0
   -2.0452    4.9376    0.0000 O   0  0  0  0  0  0  0  0  0  0  0  0
    0.0000    3.8444    0.0000 C   0  0  0  0  0  0  0  0  0  0  0  0
    0.0000    5.3444    0.0000 C   0  0  0  0  0  0  0  0  0  0  0  0
    1.4712    3.5517    0.0000 C   0  0  0  0  0  0  0  0  0  0  0  0
    2.7184    2.7184    0.0000 C   0  0  0  0  0  0  0  0  0  0  0  0
    3.7790    3.7790    0.0000 C   0  0  0  0  0  0  0  0  0  0  0  0
    5.2279    3.3908    0.0000 C   0  0  0  0  0  0  0  0  0  0  0  0
    6.2886    4.4515    0.0000 O   0  0  0  0  0  0  0  0  0  0  0  0
    3.5517    1.4712    0.0000 C   0  0  0  0  0  0  0  0  0  0  0  0
    4.9376    2.0452    0.0000 O   0  0  0  0  0  0  0  0  0  0  0  0
    6.1276    1.1321    0.0000 C   0  0  0  0  0  0  0  0  0  0  0  0
    5.9318   -0.3551    0.0000 O   0  0  0  0  0  0  0  0  0  0  0  0
    7.1218   -1.2682    0.0000 C   0  0  0  0  0  0  0  0  0  0  0  0
    6.9260   -2.7554    0.0000 C   0  0  0  0  0  0  0  0  0  0  0  0
    8.5076   -0.6942    0.0000 C   0  0  0  0  0  0  0  0  0  0  0  0
    9.6977   -1.6074    0.0000 O   0  0  0  0  0  0  0  0  0  0  0  0
   11.0835   -1.0333    0.0000 C   0  0  0  0  0  0  0  0  0  0  0  0
   12.2735   -1.9465    0.0000 C   0  0  0  0  0  0  0  0  0  0  0  0
   13.6593   -1.3725    0.0000 C   0  0  0  0  0  0  0  0  0  0  0  0
   15.1579   -1.3070    0.0000 C   0  0  0  0  0  0  0  0  0  0  0  0
   13.9840   -2.8369    0.0000 O   0  0  0  0  0  0  0  0  0  0  0  0
   13.8551    0.1147    0.0000 C   0  0  0  0  0  0  0  0  0  0  0  0
   15.2410    0.6887    0.0000 O   0  0  0  0  0  0  0  0  0  0  0  0
   15.4367    2.1759    0.0000 C   0  0  0  0  0  0  0  0  0  0  0  0
   14.2467    3.0890    0.0000 O   0  0  0  0  0  0  0  0  0  0  0  0
   16.8226    2.7499    0.0000 C   0  0  0  0  0  0  0  0  0  0  0  0
   17.0184    4.2371    0.0000 C   0  0  0  0  0  0  0  0  0  0  0  0
   18.4042    4.8111    0.0000 C   0  0  0  0  0  0  0  0  0  0  0  0
   15.8283    5.1502    0.0000 C   0  0  0  0  0  0  0  0  0  0  0  0
   12.6651    1.0279    0.0000 C   0  0  0  0  0  0  0  0  0  0  0  0
   12.8609    2.5150    0.0000 C   0  0  0  0  0  0  0  0  0  0  0  0
   11.2793    0.4538    0.0000 O   0  0  0  0  0  0  0  0  0  0  0  0
    8.7034    0.7929    0.0000 C   0  0  0  0  0  0  0  0  0  0  0  0
   10.0893    1.3670    0.0000 N   0  0  0  0  0  0  0  0  0  0  0  0
   10.2850    2.8541    0.0000 C   0  0  0  0  0  0  0  0  0  0  0  0
   11.4649    0.7689    0.0000 C   0  0  0  0  0  0  0  0  0  0  0  0
    7.5134    1.7061    0.0000 C   0  0  0  0  0  0  0  0  0  0  0  0
    7.7092    3.1933    0.0000 O   0  0  0  0  0  0  0  0  0  0  0  0
  1  2  1  0
  2  3  1  0
  3  4  1  0
  4  5  1  0
  4  6  1  0
  6  7  1  0
  7  8  2  0
  7  9  1  0
  9 10  1  0
 10 11  1  0
 10 12  1  0
 12 13  1  0
 13 14  2  0
 14 15  1  0
 15 16  2  0
 16 17  1  0
 17 18  1  0
 17 19  1  0
 19 20  1  0
 19 21  1  0
 21 22  1  0
 22 23  1  0
 23 24  1  0
 24 25  2  0
 22 26  1  0
 26 27  1  0
 27 28  1  0
 28 29  1  0
 29 30  1  0
 30 31  1  0
 30 32  1  0
 32 33  1  0
 33 34  1  0
 34 35  1  0
 35 36  1  0
 36 37  1  0
 36 38  1  0
 36 39  1  0
 39 40  1  0
 40 41  1  0
 41 42  2  0
 41 43  1  0
 43 44  1  0
 44 45  1  0
 44 46  1  0
 39 47  1  0
 47 48  1  0
 47 49  1  0
 32 50  1  0
 50 51  1  0
 51 52  1  0
 51 53  1  0
 50 54  1  0
 54 55  1  0
 26  3  1  0
 54 28  1  0
 49 34  1  0
M  END
>  <ChEMBL_IDs>  (390) 
nan

>  <target_organism>  (390) 
nan

>  <target_molecule_pref_name>  (390) 
nan

>  <# Known Targets>  (390) 
nan

>  <Known Targets>  (390) 
nan

>  <smiles>  (390) 
COC1C(O)CC(=O)OC(C)C/C=C\C=C/C(O)C(C)CC(CC=O)C1OC1OC(C)C(OC2CC(C)(O)C(OC(=O)CC(C)C)C(C)O2)C(N(C)C)C1O

$$$$

     RDKit          2D

 54 56  0  0  0  0  0  0  0  0999 V2000
    8.4400   -1.8841    0.0000 C   0  0  0  0  0  0  0  0  0  0  0  0
    7.2006   -1.0391    0.0000 C   0  0  0  0  0  0  0  0  0  0  0  0
    5.9613   -0.1942    0.0000 C   0  0  0  0  0  0  0  0  0  0  0  0
    4.6098   -0.8450    0.0000 O   0  0  0  0  0  0  0  0  0  0  0  0
    3.3705    0.0000    0.0000 C   0  0  0  0  0  0  0  0  0  0  0  0
    4.6098    0.8450    0.0000 C   0  0  0  0  0  0  0  0  0  0  0  0
    3.0367   -1.4624    0.0000 C   0  0  0  0  0  0  0  0  0  0  0  0
    2.1015   -2.6351    0.0000 C   0  0  0  0  0  0  0  0  0  0  0  0
    3.0367   -3.8079    0.0000 C   0  0  0  0  0  0  0  0  0  0  0  0
    0.7500   -3.2860    0.0000 C   0  0  0  0  0  0  0  0  0  0  0  0
    1.0838   -4.7484    0.0000 O   0  0  0  0  0  0  0  0  0  0  0  0
   -0.7500   -3.2860    0.0000 C   0  0  0  0  0  0  0  0  0  0  0  0
   -1.0838   -4.7484    0.0000 C   0  0  0  0  0  0  0  0  0  0  0  0
   -2.1015   -2.6351    0.0000 C   0  0  0  0  0  0  0  0  0  0  0  0
   -3.0367   -3.8079    0.0000 O   0  0  0  0  0  0  0  0  0  0  0  0
   -3.0367   -1.4624    0.0000 C   0  0  0  0  0  0  0  0  0  0  0  0
   -3.7867   -2.7614    0.0000 C   0  0  0  0  0  0  0  0  0  0  0  0
   -4.5199   -1.2388    0.0000 O   0  0  0  0  0  0  0  0  0  0  0  0
   -3.3705    0.0000    0.0000 C   0  0  0  0  0  0  0  0  0  0  0  0
   -4.8705    0.0000    0.0000 C   0  0  0  0  0  0  0  0  0  0  0  0
   -5.6205    1.2990    0.0000 C   0  0  0  0  0  0  0  0  0  0  0  0
   -3.0367    1.4624    0.0000 O   0  0  0  0  0  0  0  0  0  0  0  0
   -2.1015    2.6351    0.0000 C   0  0  0  0  0  0  0  0  0  0  0  0
   -3.0367    3.8079    0.0000 O   0  0  0  0  0  0  0  0  0  0  0  0
   -0.7500    3.2860    0.0000 C   0  0  0  0  0  0  0  0  0  0  0  0
   -1.3600    4.4903    0.0000 C   0  0  0  0  0  0  0  0  0  0  0  0
    0.7500    3.2860    0.0000 C   0  0  0  0  0  0  0  0  0  0  0  0
    1.0838    4.7484    0.0000 O   0  0  0  0  0  0  0  0  0  0  0  0
   -0.0158    5.7686    0.0000 C   0  0  0  0  0  0  0  0  0  0  0  0
    0.3180    7.2310    0.0000 C   0  0  0  0  0  0  0  0  0  0  0  0
   -0.7816    8.2513    0.0000 C   0  0  0  0  0  0  0  0  0  0  0  0
   -1.4659    9.5861    0.0000 C   0  0  0  0  0  0  0  0  0  0  0  0
    0.4141    9.1570    0.0000 O   0  0  0  0  0  0  0  0  0  0  0  0
    0.2276   10.6453    0.0000 C   0  0  0  0  0  0  0  0  0  0  0  0
   -2.2150    7.8091    0.0000 C   0  0  0  0  0  0  0  0  0  0  0  0
   -3.3145    8.8294    0.0000 O   0  0  0  0  0  0  0  0  0  0  0  0
   -2.5487    6.3467    0.0000 C   0  0  0  0  0  0  0  0  0  0  0  0
   -3.9821    5.9046    0.0000 C   0  0  0  0  0  0  0  0  0  0  0  0
   -1.4492    5.3265    0.0000 O   0  0  0  0  0  0  0  0  0  0  0  0
    2.1015    2.6351    0.0000 C   0  0  0  0  0  0  0  0  0  0  0  0
    3.0367    3.8079    0.0000 C   0  0  0  0  0  0  0  0  0  0  0  0
    3.0367    1.4624    0.0000 C   0  0  0  0  0  0  0  0  0  0  0  0
    4.3881    2.1132    0.0000 O   0  0  0  0  0  0  0  0  0  0  0  0
    5.6275    1.2682    0.0000 C   0  0  0  0  0  0  0  0  0  0  0  0
    5.5154   -0.2276    0.0000 O   0  0  0  0  0  0  0  0  0  0  0  0
    6.7548   -1.0725    0.0000 C   0  0  0  0  0  0  0  0  0  0  0  0
    6.6427   -2.5684    0.0000 C   0  0  0  0  0  0  0  0  0  0  0  0
    8.1062   -0.4217    0.0000 C   0  0  0  0  0  0  0  0  0  0  0  0
    8.2183    1.0741    0.0000 C   0  0  0  0  0  0  0  0  0  0  0  0
    9.5698    1.7249    0.0000 N   0  0  0  0  0  0  0  0  0  0  0  0
   10.8091    0.8799    0.0000 C   0  0  0  0  0  0  0  0  0  0  0  0
    9.6819    3.2207    0.0000 C   0  0  0  0  0  0  0  0  0  0  0  0
    6.9790    1.9191    0.0000 C   0  0  0  0  0  0  0  0  0  0  0  0
    7.0910    3.4149    0.0000 O   0  0  0  0  0  0  0  0  0  0  0  0
  1  2  3  0
  2  3  1  0
  3  4  1  0
  4  5  1  0
  5  6  1  6
  5  7  1  0
  7  8  1  0
  8  9  1  1
  8 10  1  0
 10 11  2  0
 10 12  1  0
 12 13  1  6
 12 14  1  0
 14 15  1  1
 14 16  1  0
 16 17  1  1
 16 18  1  0
 16 19  1  0
 19 20  1  1
 20 21  1  0
 19 22  1  0
 22 23  1  0
 23 24  2  0
 23 25  1  0
 25 26  1  6
 25 27  1  0
 27 28  1  1
 29 28  1  6
 29 30  1  0
 30 31  1  0
 31 32  1  1
 31 33  1  0
 33 34  1  0
 31 35  1  0
 35 36  1  6
 35 37  1  0
 37 38  1  1
 37 39  1  0
 27 40  1  0
 40 41  1  6
 40 42  1  0
 42 43  1  1
 44 43  1  1
 44 45  1  0
 45 46  1  0
 46 47  1  1
 46 48  1  0
 48 49  1  0
 49 50  1  1
 50 51  1  0
 50 52  1  0
 49 53  1  0
 53 54  1  6
 42  5  1  0
 53 44  1  0
 39 29  1  0
M  END
>  <ChEMBL_IDs>  (391) 
CHEMBL168255

>  <target_organism>  (391) 
Homo sapiens,None,Escherichia coli K-12

>  <target_molecule_pref_name>  (391) 
nan

>  <# Known Targets>  (391) 
nan

>  <Known Targets>  (391) 
nan

>  <smiles>  (391) 
C#CCO[C@@]1(C)C[C@@H](C)C(=O)[C@H](C)[C@@H](O)[C@](C)(O)[C@@H](CC)OC(=O)[C@H](C)[C@@H](O[C@H]2C[C@@](C)(OC)[C@@H](O)[C@H](C)O2)[C@H](C)[C@H]1O[C@@H]1O[C@H](C)C[C@H](N(C)C)[C@H]1O

$$$$

     RDKit          2D

 55 57  0  0  0  0  0  0  0  0999 V2000
    6.0944   -1.2990    0.0000 C   0  0  0  0  0  0  0  0  0  0  0  0
    5.3444    0.0000    0.0000 C   0  0  0  0  0  0  0  0  0  0  0  0
    3.8444    0.0000    0.0000 C   0  0  0  0  0  0  0  0  0  0  0  0
    3.5517   -1.4712    0.0000 O   0  0  0  0  0  0  0  0  0  0  0  0
    2.7184   -2.7184    0.0000 C   0  0  0  0  0  0  0  0  0  0  0  0
    3.7790   -3.7790    0.0000 O   0  0  0  0  0  0  0  0  0  0  0  0
    1.4712   -3.5517    0.0000 C   0  0  0  0  0  0  0  0  0  0  0  0
   -0.0000   -3.8444    0.0000 C   0  0  0  0  0  0  0  0  0  0  0  0
   -0.0000   -5.3444    0.0000 O   0  0  0  0  0  0  0  0  0  0  0  0
   -1.4712   -3.5517    0.0000 C   0  0  0  0  0  0  0  0  0  0  0  0
   -1.6507   -4.7534    0.0000 C   0  0  0  0  0  0  0  0  0  0  0  0
   -2.7184   -2.7184    0.0000 C   0  0  0  0  0  0  0  0  0  0  0  0
   -3.7790   -3.7790    0.0000 O   0  0  0  0  0  0  0  0  0  0  0  0
   -3.3908   -5.2279    0.0000 C   0  0  0  0  0  0  0  0  0  0  0  0
   -1.9419   -5.6162    0.0000 O   0  0  0  0  0  0  0  0  0  0  0  0
   -1.5537   -7.0650    0.0000 C   0  0  0  0  0  0  0  0  0  0  0  0
   -0.1048   -7.4533    0.0000 C   0  0  0  0  0  0  0  0  0  0  0  0
   -2.6144   -8.1257    0.0000 C   0  0  0  0  0  0  0  0  0  0  0  0
   -2.2261   -9.5746    0.0000 O   0  0  0  0  0  0  0  0  0  0  0  0
   -4.0632   -7.7375    0.0000 C   0  0  0  0  0  0  0  0  0  0  0  0
   -5.1239   -8.7981    0.0000 N   0  0  0  0  0  0  0  0  0  0  0  0
   -6.5728   -8.4099    0.0000 C   0  0  0  0  0  0  0  0  0  0  0  0
   -4.7357  -10.2470    0.0000 C   0  0  0  0  0  0  0  0  0  0  0  0
   -4.4515   -6.2886    0.0000 C   0  0  0  0  0  0  0  0  0  0  0  0
   -5.9004   -5.9004    0.0000 O   0  0  0  0  0  0  0  0  0  0  0  0
   -3.5517   -1.4712    0.0000 C   0  0  0  0  0  0  0  0  0  0  0  0
   -4.9376   -2.0452    0.0000 C   0  0  0  0  0  0  0  0  0  0  0  0
   -6.1276   -1.1321    0.0000 C   0  0  0  0  0  0  0  0  0  0  0  0
   -7.5134   -1.7061    0.0000 O   0  0  0  0  0  0  0  0  0  0  0  0
   -8.7034   -0.7929    0.0000 C   0  0  0  0  0  0  0  0  0  0  0  0
   -3.8444    0.0000    0.0000 C   0  0  0  0  0  0  0  0  0  0  0  0
   -3.5517    1.4712    0.0000 C   0  0  0  0  0  0  0  0  0  0  0  0
   -4.9376    2.0452    0.0000 C   0  0  0  0  0  0  0  0  0  0  0  0
   -2.7184    2.7184    0.0000 C   0  0  0  0  0  0  0  0  0  0  0  0
   -3.7790    3.7790    0.0000 O   0  0  0  0  0  0  0  0  0  0  0  0
   -1.4712    3.5517    0.0000 C   0  0  0  0  0  0  0  0  0  0  0  0
    0.0000    3.8444    0.0000 C   0  0  0  0  0  0  0  0  0  0  0  0
    1.4712    3.5517    0.0000 C   0  0  0  0  0  0  0  0  0  0  0  0
    2.0452    4.9376    0.0000 C   0  0  0  0  0  0  0  0  0  0  0  0
    2.7184    2.7184    0.0000 C   0  0  0  0  0  0  0  0  0  0  0  0
    3.5517    1.4712    0.0000 C   0  0  0  0  0  0  0  0  0  0  0  0
    4.9376    2.0452    0.0000 C   0  0  0  0  0  0  0  0  0  0  0  0
    6.1276    1.1321    0.0000 O   0  0  0  0  0  0  0  0  0  0  0  0
    7.5134    1.7061    0.0000 C   0  0  0  0  0  0  0  0  0  0  0  0
    8.7034    0.7929    0.0000 O   0  0  0  0  0  0  0  0  0  0  0  0
   10.0893    1.3670    0.0000 C   0  0  0  0  0  0  0  0  0  0  0  0
   11.2793    0.4538    0.0000 C   0  0  0  0  0  0  0  0  0  0  0  0
   10.2850    2.8541    0.0000 C   0  0  0  0  0  0  0  0  0  0  0  0
   11.6709    3.4282    0.0000 O   0  0  0  0  0  0  0  0  0  0  0  0
    9.0950    3.7673    0.0000 C   0  0  0  0  0  0  0  0  0  0  0  0
    9.2908    5.2544    0.0000 O   0  0  0  0  0  0  0  0  0  0  0  0
    8.1008    6.1676    0.0000 C   0  0  0  0  0  0  0  0  0  0  0  0
    7.7092    3.1933    0.0000 C   0  0  0  0  0  0  0  0  0  0  0  0
    6.5192    4.1064    0.0000 O   0  0  0  0  0  0  0  0  0  0  0  0
    6.7150    5.5936    0.0000 C   0  0  0  0  0  0  0  0  0  0  0  0
  1  2  1  0
  3  2  1  1
  3  4  1  0
  4  5  1  0
  5  6  2  0
  5  7  1  0
  7  8  1  0
  8  9  1  1
  8 10  1  0
 10 11  1  6
 10 12  1  0
 12 13  1  1
 14 13  1  6
 14 15  1  0
 15 16  1  0
 16 17  1  6
 16 18  1  0
 18 19  1  1
 18 20  1  0
 20 21  1  6
 21 22  1  0
 21 23  1  0
 20 24  1  0
 24 25  1  1
 12 26  1  0
 26 27  1  1
 27 28  1  0
 28 29  1  0
 29 30  1  0
 26 31  1  0
 31 32  1  0
 32 33  1  1
 32 34  1  0
 34 35  2  0
 34 36  1  0
 36 37  2  0
 37 38  1  0
 38 39  1  0
 38 40  2  0
 40 41  1  0
 41 42  1  6
 42 43  1  0
 44 43  1  1
 44 45  1  0
 45 46  1  0
 46 47  1  1
 46 48  1  0
 48 49  1  6
 48 50  1  0
 50 51  1  6
 51 52  1  0
 50 53  1  0
 53 54  1  6
 54 55  1  0
 41  3  1  0
 53 44  1  0
 24 14  1  0
M  END
>  <ChEMBL_IDs>  (392) 
CHEMBL289268

>  <target_organism>  (392) 
None

>  <target_molecule_pref_name>  (392) 
nan

>  <# Known Targets>  (392) 
nan

>  <Known Targets>  (392) 
nan

>  <smiles>  (392) 
CC[C@H]1OC(=O)C[C@@H](O)[C@H](C)[C@@H](O[C@@H]2O[C@H](C)[C@@H](O)[C@H](N(C)C)[C@H]2O)[C@@H](CCOC)C[C@@H](C)C(=O)/C=C/C(C)=C/[C@@H]1CO[C@@H]1O[C@H](C)[C@@H](O)[C@@H](OC)[C@H]1OC

$$$$

     RDKit          2D

 55 57  0  0  0  0  0  0  0  0999 V2000
    7.1205    1.2990    0.0000 C   0  0  0  0  0  0  0  0  0  0  0  0
    5.6205    1.2990    0.0000 O   0  0  0  0  0  0  0  0  0  0  0  0
    4.8705    0.0000    0.0000 C   0  0  0  0  0  0  0  0  0  0  0  0
    5.6205   -1.2990    0.0000 O   0  0  0  0  0  0  0  0  0  0  0  0
    3.3705    0.0000    0.0000 C   0  0  0  0  0  0  0  0  0  0  0  0
    3.0367   -1.4624    0.0000 C   0  0  0  0  0  0  0  0  0  0  0  0
    4.3881   -2.1132    0.0000 C   0  0  0  0  0  0  0  0  0  0  0  0
    2.1015   -2.6351    0.0000 C   0  0  0  0  0  0  0  0  0  0  0  0
    3.0367   -3.8079    0.0000 O   0  0  0  0  0  0  0  0  0  0  0  0
    0.7500   -3.2860    0.0000 C   0  0  0  0  0  0  0  0  0  0  0  0
    1.8496   -4.3062    0.0000 C   0  0  0  0  0  0  0  0  0  0  0  0
    0.2020   -4.6823    0.0000 O   0  0  0  0  0  0  0  0  0  0  0  0
   -0.7500   -3.2860    0.0000 C   0  0  0  0  0  0  0  0  0  0  0  0
   -2.1015   -2.6351    0.0000 C   0  0  0  0  0  0  0  0  0  0  0  0
   -2.6628   -3.8629    0.0000 C   0  0  0  0  0  0  0  0  0  0  0  0
   -3.0367   -1.4624    0.0000 C   0  0  0  0  0  0  0  0  0  0  0  0
   -4.3881   -2.1132    0.0000 O   0  0  0  0  0  0  0  0  0  0  0  0
   -4.5002   -3.6090    0.0000 C   0  0  0  0  0  0  0  0  0  0  0  0
   -3.2609   -4.4540    0.0000 O   0  0  0  0  0  0  0  0  0  0  0  0
   -3.3730   -5.9498    0.0000 C   0  0  0  0  0  0  0  0  0  0  0  0
   -2.1336   -6.7948    0.0000 C   0  0  0  0  0  0  0  0  0  0  0  0
   -4.7244   -6.6006    0.0000 C   0  0  0  0  0  0  0  0  0  0  0  0
   -5.9638   -5.7557    0.0000 C   0  0  0  0  0  0  0  0  0  0  0  0
   -7.3152   -6.4065    0.0000 O   0  0  0  0  0  0  0  0  0  0  0  0
   -7.4273   -7.9023    0.0000 C   0  0  0  0  0  0  0  0  0  0  0  0
   -5.8517   -4.2598    0.0000 C   0  0  0  0  0  0  0  0  0  0  0  0
   -7.0910   -3.4149    0.0000 O   0  0  0  0  0  0  0  0  0  0  0  0
   -3.3705    0.0000    0.0000 C   0  0  0  0  0  0  0  0  0  0  0  0
   -4.8705    0.0000    0.0000 C   0  0  0  0  0  0  0  0  0  0  0  0
   -3.0367    1.4624    0.0000 C   0  0  0  0  0  0  0  0  0  0  0  0
   -4.3881    2.1132    0.0000 O   0  0  0  0  0  0  0  0  0  0  0  0
   -4.5002    3.6090    0.0000 C   0  0  0  0  0  0  0  0  0  0  0  0
   -3.2609    4.4540    0.0000 C   0  0  0  0  0  0  0  0  0  0  0  0
   -3.3730    5.9498    0.0000 C   0  0  0  0  0  0  0  0  0  0  0  0
   -2.9667    7.3937    0.0000 C   0  0  0  0  0  0  0  0  0  0  0  0
   -1.8804    5.8005    0.0000 O   0  0  0  0  0  0  0  0  0  0  0  0
   -1.0048    7.0184    0.0000 C   0  0  0  0  0  0  0  0  0  0  0  0
   -4.7244    6.6006    0.0000 C   0  0  0  0  0  0  0  0  0  0  0  0
   -4.8365    8.0964    0.0000 O   0  0  0  0  0  0  0  0  0  0  0  0
   -5.9638    5.7557    0.0000 C   0  0  0  0  0  0  0  0  0  0  0  0
   -7.3152    6.4065    0.0000 C   0  0  0  0  0  0  0  0  0  0  0  0
   -5.8517    4.2598    0.0000 O   0  0  0  0  0  0  0  0  0  0  0  0
   -2.1015    2.6351    0.0000 C   0  0  0  0  0  0  0  0  0  0  0  0
   -2.7251    3.9993    0.0000 C   0  0  0  0  0  0  0  0  0  0  0  0
   -0.7500    3.2860    0.0000 C   0  0  0  0  0  0  0  0  0  0  0  0
   -1.0838    4.7484    0.0000 O   0  0  0  0  0  0  0  0  0  0  0  0
    0.7500    3.2860    0.0000 O   0  0  0  0  0  0  0  0  0  0  0  0
    2.1015    2.6351    0.0000 C   0  0  0  0  0  0  0  0  0  0  0  0
    3.0367    3.8079    0.0000 C   0  0  0  0  0  0  0  0  0  0  0  0
    4.5199    3.5843    0.0000 C   0  0  0  0  0  0  0  0  0  0  0  0
    2.4887    5.2042    0.0000 C   0  0  0  0  0  0  0  0  0  0  0  0
    3.4239    6.3769    0.0000 C   0  0  0  0  0  0  0  0  0  0  0  0
    1.0054    5.4278    0.0000 O   0  0  0  0  0  0  0  0  0  0  0  0
    3.0367    1.4624    0.0000 C   0  0  0  0  0  0  0  0  0  0  0  0
    4.3881    2.1132    0.0000 C   0  0  0  0  0  0  0  0  0  0  0  0
  1  2  1  0
  2  3  1  0
  3  4  2  0
  3  5  1  0
  5  6  1  0
  6  7  1  0
  6  8  1  0
  8  9  2  0
  8 10  1  0
 10 11  1  0
 10 12  1  0
 10 13  1  0
 13 14  1  0
 14 15  1  0
 14 16  1  0
 16 17  1  0
 17 18  1  0
 18 19  1  0
 19 20  1  0
 20 21  1  0
 20 22  1  0
 22 23  1  0
 23 24  1  0
 24 25  1  0
 23 26  1  0
 26 27  1  0
 16 28  1  0
 28 29  1  0
 28 30  1  0
 30 31  1  0
 31 32  1  0
 32 33  1  0
 33 34  1  0
 34 35  1  0
 34 36  1  0
 36 37  1  0
 34 38  1  0
 38 39  1  0
 38 40  1  0
 40 41  1  0
 40 42  1  0
 30 43  1  0
 43 44  1  0
 43 45  1  0
 45 46  2  0
 45 47  1  0
 47 48  1  0
 48 49  1  0
 49 50  1  0
 49 51  1  0
 51 52  1  0
 51 53  1  0
 48 54  1  0
 54 55  1  0
 54  5  1  0
 26 18  1  0
 42 32  1  0
M  END
>  <ChEMBL_IDs>  (393) 
nan

>  <target_organism>  (393) 
nan

>  <target_molecule_pref_name>  (393) 
nan

>  <# Known Targets>  (393) 
nan

>  <Known Targets>  (393) 
nan

>  <smiles>  (393) 
COC(=O)C1C(C)C(=O)C(C)(O)CC(C)C(OC2OC(C)CC(OC)C2O)C(C)C(OC2CC(C)(OC)C(O)C(C)O2)C(C)C(=O)OC(C(C)C(C)O)C1C

$$$$

     RDKit          2D

 55 57  0  0  0  0  0  0  0  0999 V2000
    8.5546   -5.5615    0.0000 C   0  0  0  0  0  0  0  0  0  0  0  0
    7.3152   -6.4065    0.0000 O   0  0  0  0  0  0  0  0  0  0  0  0
    5.9638   -5.7557    0.0000 C   0  0  0  0  0  0  0  0  0  0  0  0
    4.7244   -6.6006    0.0000 C   0  0  0  0  0  0  0  0  0  0  0  0
    3.3730   -5.9498    0.0000 C   0  0  0  0  0  0  0  0  0  0  0  0
    2.1336   -6.7948    0.0000 C   0  0  0  0  0  0  0  0  0  0  0  0
    3.2609   -4.4540    0.0000 O   0  0  0  0  0  0  0  0  0  0  0  0
    4.5002   -3.6090    0.0000 C   0  0  0  0  0  0  0  0  0  0  0  0
    4.3881   -2.1132    0.0000 O   0  0  0  0  0  0  0  0  0  0  0  0
    3.0367   -1.4624    0.0000 C   0  0  0  0  0  0  0  0  0  0  0  0
    3.3705    0.0000    0.0000 C   0  0  0  0  0  0  0  0  0  0  0  0
    4.8705    0.0000    0.0000 C   0  0  0  0  0  0  0  0  0  0  0  0
    3.0367    1.4624    0.0000 C   0  0  0  0  0  0  0  0  0  0  0  0
    2.1015    2.6351    0.0000 C   0  0  0  0  0  0  0  0  0  0  0  0
    2.2135    4.1309    0.0000 C   0  0  0  0  0  0  0  0  0  0  0  0
    3.5348    3.0773    0.0000 O   0  0  0  0  0  0  0  0  0  0  0  0
    0.7500    3.2860    0.0000 C   0  0  0  0  0  0  0  0  0  0  0  0
    1.0838    4.7484    0.0000 O   0  0  0  0  0  0  0  0  0  0  0  0
   -0.7500    3.2860    0.0000 C   0  0  0  0  0  0  0  0  0  0  0  0
   -0.9030    4.7781    0.0000 C   0  0  0  0  0  0  0  0  0  0  0  0
   -2.1015    2.6351    0.0000 C   0  0  0  0  0  0  0  0  0  0  0  0
   -3.0367    3.8079    0.0000 O   0  0  0  0  0  0  0  0  0  0  0  0
   -2.4887    5.2042    0.0000 C   0  0  0  0  0  0  0  0  0  0  0  0
   -1.0437    5.6069    0.0000 C   0  0  0  0  0  0  0  0  0  0  0  0
   -3.4239    6.3769    0.0000 O   0  0  0  0  0  0  0  0  0  0  0  0
   -3.0367    1.4624    0.0000 C   0  0  0  0  0  0  0  0  0  0  0  0
   -4.2987    2.2731    0.0000 C   0  0  0  0  0  0  0  0  0  0  0  0
   -3.3705    0.0000    0.0000 C   0  0  0  0  0  0  0  0  0  0  0  0
   -4.8705    0.0000    0.0000 C   0  0  0  0  0  0  0  0  0  0  0  0
   -5.6205   -1.2990    0.0000 C   0  0  0  0  0  0  0  0  0  0  0  0
   -5.6205    1.2990    0.0000 C   0  0  0  0  0  0  0  0  0  0  0  0
   -7.1205    1.2990    0.0000 C   0  0  0  0  0  0  0  0  0  0  0  0
   -5.0344    2.6798    0.0000 O   0  0  0  0  0  0  0  0  0  0  0  0
   -3.0367   -1.4624    0.0000 O   0  0  0  0  0  0  0  0  0  0  0  0
   -2.1015   -2.6351    0.0000 C   0  0  0  0  0  0  0  0  0  0  0  0
   -3.0367   -3.8079    0.0000 O   0  0  0  0  0  0  0  0  0  0  0  0
   -0.7500   -3.2860    0.0000 C   0  0  0  0  0  0  0  0  0  0  0  0
   -1.0838   -4.7484    0.0000 C   0  0  0  0  0  0  0  0  0  0  0  0
    0.7500   -3.2860    0.0000 C   0  0  0  0  0  0  0  0  0  0  0  0
    1.0838   -4.7484    0.0000 O   0  0  0  0  0  0  0  0  0  0  0  0
    2.5171   -5.1905    0.0000 C   0  0  0  0  0  0  0  0  0  0  0  0
    2.8509   -6.6529    0.0000 C   0  0  0  0  0  0  0  0  0  0  0  0
    4.2843   -7.0950    0.0000 C   0  0  0  0  0  0  0  0  0  0  0  0
    5.4800   -8.0007    0.0000 C   0  0  0  0  0  0  0  0  0  0  0  0
    3.6000   -8.4298    0.0000 O   0  0  0  0  0  0  0  0  0  0  0  0
    4.4138   -9.6899    0.0000 C   0  0  0  0  0  0  0  0  0  0  0  0
    5.3839   -6.0748    0.0000 C   0  0  0  0  0  0  0  0  0  0  0  0
    6.6676   -6.8506    0.0000 O   0  0  0  0  0  0  0  0  0  0  0  0
    5.0501   -4.6124    0.0000 C   0  0  0  0  0  0  0  0  0  0  0  0
    6.1497   -3.5921    0.0000 C   0  0  0  0  0  0  0  0  0  0  0  0
    3.6167   -4.1702    0.0000 O   0  0  0  0  0  0  0  0  0  0  0  0
    2.1015   -2.6351    0.0000 C   0  0  0  0  0  0  0  0  0  0  0  0
    3.0367   -3.8079    0.0000 C   0  0  0  0  0  0  0  0  0  0  0  0
    5.8517   -4.2598    0.0000 C   0  0  0  0  0  0  0  0  0  0  0  0
    7.0910   -3.4149    0.0000 O   0  0  0  0  0  0  0  0  0  0  0  0
  1  2  1  0
  2  3  1  0
  3  4  1  0
  4  5  1  0
  5  6  1  0
  5  7  1  0
  7  8  1  0
  8  9  1  0
  9 10  1  0
 10 11  1  0
 11 12  1  0
 11 13  1  0
 13 14  1  0
 14 15  1  0
 14 16  1  0
 14 17  1  0
 17 18  2  0
 17 19  1  0
 19 20  1  0
 19 21  1  0
 21 22  1  0
 22 23  1  0
 23 24  1  0
 23 25  2  0
 21 26  1  0
 26 27  1  0
 26 28  1  0
 28 29  1  0
 29 30  1  0
 29 31  1  0
 31 32  1  0
 31 33  1  0
 28 34  1  0
 34 35  1  0
 35 36  2  0
 35 37  1  0
 37 38  1  0
 37 39  1  0
 39 40  1  0
 40 41  1  0
 41 42  1  0
 42 43  1  0
 43 44  1  0
 43 45  1  0
 45 46  1  0
 43 47  1  0
 47 48  1  0
 47 49  1  0
 49 50  1  0
 49 51  1  0
 39 52  1  0
 52 53  1  0
  8 54  1  0
 54 55  1  0
 54  3  1  0
 52 10  1  0
 51 41  1  0
M  END
>  <ChEMBL_IDs>  (394) 
nan

>  <target_organism>  (394) 
nan

>  <target_molecule_pref_name>  (394) 
nan

>  <# Known Targets>  (394) 
nan

>  <Known Targets>  (394) 
nan

>  <smiles>  (394) 
COC1CC(C)OC(OC2C(C)CC(C)(O)C(=O)C(C)C(OC(C)=O)C(C)C(C(C)C(C)O)OC(=O)C(C)C(OC3CC(C)(OC)C(O)C(C)O3)C2C)C1O

$$$$

     RDKit          2D

 54 56  0  0  0  0  0  0  0  0999 V2000
    8.6694   -0.7347    0.0000 C   0  0  0  0  0  0  0  0  0  0  0  0
    7.2006   -1.0391    0.0000 C   0  0  0  0  0  0  0  0  0  0  0  0
    5.9613   -0.1942    0.0000 C   0  0  0  0  0  0  0  0  0  0  0  0
    4.6098   -0.8450    0.0000 O   0  0  0  0  0  0  0  0  0  0  0  0
    3.3705    0.0000    0.0000 C   0  0  0  0  0  0  0  0  0  0  0  0
    4.6098    0.8450    0.0000 C   0  0  0  0  0  0  0  0  0  0  0  0
    3.0367   -1.4624    0.0000 C   0  0  0  0  0  0  0  0  0  0  0  0
    2.1015   -2.6351    0.0000 C   0  0  0  0  0  0  0  0  0  0  0  0
    3.0367   -3.8079    0.0000 C   0  0  0  0  0  0  0  0  0  0  0  0
    0.7500   -3.2860    0.0000 C   0  0  0  0  0  0  0  0  0  0  0  0
    1.0838   -4.7484    0.0000 O   0  0  0  0  0  0  0  0  0  0  0  0
   -0.7500   -3.2860    0.0000 C   0  0  0  0  0  0  0  0  0  0  0  0
   -1.0838   -4.7484    0.0000 C   0  0  0  0  0  0  0  0  0  0  0  0
   -2.1015   -2.6351    0.0000 C   0  0  0  0  0  0  0  0  0  0  0  0
   -3.0367   -3.8079    0.0000 O   0  0  0  0  0  0  0  0  0  0  0  0
   -3.0367   -1.4624    0.0000 C   0  0  0  0  0  0  0  0  0  0  0  0
   -3.7867   -2.7614    0.0000 C   0  0  0  0  0  0  0  0  0  0  0  0
   -4.5199   -1.2388    0.0000 O   0  0  0  0  0  0  0  0  0  0  0  0
   -3.3705    0.0000    0.0000 C   0  0  0  0  0  0  0  0  0  0  0  0
   -4.8705    0.0000    0.0000 C   0  0  0  0  0  0  0  0  0  0  0  0
   -5.6205    1.2990    0.0000 C   0  0  0  0  0  0  0  0  0  0  0  0
   -3.0367    1.4624    0.0000 O   0  0  0  0  0  0  0  0  0  0  0  0
   -2.1015    2.6351    0.0000 C   0  0  0  0  0  0  0  0  0  0  0  0
   -3.0367    3.8079    0.0000 O   0  0  0  0  0  0  0  0  0  0  0  0
   -0.7500    3.2860    0.0000 C   0  0  0  0  0  0  0  0  0  0  0  0
   -1.3600    4.4903    0.0000 C   0  0  0  0  0  0  0  0  0  0  0  0
    0.7500    3.2860    0.0000 C   0  0  0  0  0  0  0  0  0  0  0  0
    1.0838    4.7484    0.0000 O   0  0  0  0  0  0  0  0  0  0  0  0
   -0.0158    5.7686    0.0000 C   0  0  0  0  0  0  0  0  0  0  0  0
    0.3180    7.2310    0.0000 C   0  0  0  0  0  0  0  0  0  0  0  0
   -0.7816    8.2513    0.0000 C   0  0  0  0  0  0  0  0  0  0  0  0
   -1.4659    9.5861    0.0000 C   0  0  0  0  0  0  0  0  0  0  0  0
    0.4141    9.1570    0.0000 O   0  0  0  0  0  0  0  0  0  0  0  0
    0.2276   10.6453    0.0000 C   0  0  0  0  0  0  0  0  0  0  0  0
   -2.2150    7.8091    0.0000 C   0  0  0  0  0  0  0  0  0  0  0  0
   -3.3145    8.8294    0.0000 O   0  0  0  0  0  0  0  0  0  0  0  0
   -2.5487    6.3467    0.0000 C   0  0  0  0  0  0  0  0  0  0  0  0
   -3.9821    5.9046    0.0000 C   0  0  0  0  0  0  0  0  0  0  0  0
   -1.4492    5.3265    0.0000 O   0  0  0  0  0  0  0  0  0  0  0  0
    2.1015    2.6351    0.0000 C   0  0  0  0  0  0  0  0  0  0  0  0
    3.0367    3.8079    0.0000 C   0  0  0  0  0  0  0  0  0  0  0  0
    3.0367    1.4624    0.0000 C   0  0  0  0  0  0  0  0  0  0  0  0
    4.3881    2.1132    0.0000 O   0  0  0  0  0  0  0  0  0  0  0  0
    5.6275    1.2682    0.0000 C   0  0  0  0  0  0  0  0  0  0  0  0
    5.5154   -0.2276    0.0000 O   0  0  0  0  0  0  0  0  0  0  0  0
    6.7548   -1.0725    0.0000 C   0  0  0  0  0  0  0  0  0  0  0  0
    6.6427   -2.5684    0.0000 C   0  0  0  0  0  0  0  0  0  0  0  0
    8.1062   -0.4217    0.0000 C   0  0  0  0  0  0  0  0  0  0  0  0
    8.2183    1.0741    0.0000 C   0  0  0  0  0  0  0  0  0  0  0  0
    9.5698    1.7249    0.0000 N   0  0  0  0  0  0  0  0  0  0  0  0
   10.8091    0.8799    0.0000 C   0  0  0  0  0  0  0  0  0  0  0  0
    9.6819    3.2207    0.0000 C   0  0  0  0  0  0  0  0  0  0  0  0
    6.9790    1.9191    0.0000 C   0  0  0  0  0  0  0  0  0  0  0  0
    7.0910    3.4149    0.0000 O   0  0  0  0  0  0  0  0  0  0  0  0
  1  2  2  0
  2  3  1  0
  3  4  1  0
  4  5  1  0
  5  6  1  6
  5  7  1  0
  7  8  1  0
  8  9  1  1
  8 10  1  0
 10 11  2  0
 10 12  1  0
 12 13  1  6
 12 14  1  0
 14 15  1  1
 14 16  1  0
 16 17  1  1
 16 18  1  0
 16 19  1  0
 19 20  1  1
 20 21  1  0
 19 22  1  0
 22 23  1  0
 23 24  2  0
 23 25  1  0
 25 26  1  6
 25 27  1  0
 27 28  1  1
 29 28  1  6
 29 30  1  0
 30 31  1  0
 31 32  1  1
 31 33  1  0
 33 34  1  0
 31 35  1  0
 35 36  1  6
 35 37  1  0
 37 38  1  1
 37 39  1  0
 27 40  1  0
 40 41  1  6
 40 42  1  0
 42 43  1  1
 44 43  1  1
 44 45  1  0
 45 46  1  0
 46 47  1  1
 46 48  1  0
 48 49  1  0
 49 50  1  1
 50 51  1  0
 50 52  1  0
 49 53  1  0
 53 54  1  6
 42  5  1  0
 53 44  1  0
 39 29  1  0
M  END
>  <ChEMBL_IDs>  (395) 
CHEMBL405103

>  <target_organism>  (395) 
Hepatitis C virus,None

>  <target_molecule_pref_name>  (395) 
nan

>  <# Known Targets>  (395) 
nan

>  <Known Targets>  (395) 
nan

>  <smiles>  (395) 
C=CCO[C@@]1(C)C[C@@H](C)C(=O)[C@H](C)[C@@H](O)[C@](C)(O)[C@@H](CC)OC(=O)[C@H](C)[C@@H](O[C@H]2C[C@@](C)(OC)[C@@H](O)[C@H](C)O2)[C@H](C)[C@H]1O[C@@H]1O[C@H](C)C[C@H](N(C)C)[C@H]1O

$$$$

     RDKit          2D

 55 57  0  0  0  0  0  0  0  0999 V2000
   -1.9207   -4.8423    0.0000 C   0  0  0  0  0  0  0  0  0  0  0  0
   -0.6814   -3.9973    0.0000 C   0  0  0  0  0  0  0  0  0  0  0  0
    0.6701   -4.6482    0.0000 C   0  0  0  0  0  0  0  0  0  0  0  0
    0.5990   -6.1465    0.0000 O   0  0  0  0  0  0  0  0  0  0  0  0
    1.9094   -3.8032    0.0000 O   0  0  0  0  0  0  0  0  0  0  0  0
    3.2609   -4.4540    0.0000 C   0  0  0  0  0  0  0  0  0  0  0  0
    4.5002   -3.6090    0.0000 C   0  0  0  0  0  0  0  0  0  0  0  0
    4.3881   -2.1132    0.0000 O   0  0  0  0  0  0  0  0  0  0  0  0
    3.0367   -1.4624    0.0000 C   0  0  0  0  0  0  0  0  0  0  0  0
    3.3705    0.0000    0.0000 C   0  0  0  0  0  0  0  0  0  0  0  0
    4.8705    0.0000    0.0000 C   0  0  0  0  0  0  0  0  0  0  0  0
    3.0367    1.4624    0.0000 C   0  0  0  0  0  0  0  0  0  0  0  0
    4.3881    2.1132    0.0000 O   0  0  0  0  0  0  0  0  0  0  0  0
    4.5002    3.6090    0.0000 C   0  0  0  0  0  0  0  0  0  0  0  0
    5.8517    4.2598    0.0000 C   0  0  0  0  0  0  0  0  0  0  0  0
    5.9638    5.7557    0.0000 C   0  0  0  0  0  0  0  0  0  0  0  0
    6.5807    7.1229    0.0000 C   0  0  0  0  0  0  0  0  0  0  0  0
    7.4174    5.3855    0.0000 O   0  0  0  0  0  0  0  0  0  0  0  0
    8.4648    6.4593    0.0000 C   0  0  0  0  0  0  0  0  0  0  0  0
    4.7244    6.6006    0.0000 C   0  0  0  0  0  0  0  0  0  0  0  0
    4.8365    8.0964    0.0000 O   0  0  0  0  0  0  0  0  0  0  0  0
    3.3730    5.9498    0.0000 C   0  0  0  0  0  0  0  0  0  0  0  0
    2.1336    6.7948    0.0000 C   0  0  0  0  0  0  0  0  0  0  0  0
    3.2609    4.4540    0.0000 O   0  0  0  0  0  0  0  0  0  0  0  0
    2.1015    2.6351    0.0000 C   0  0  0  0  0  0  0  0  0  0  0  0
    2.6628    3.8629    0.0000 C   0  0  0  0  0  0  0  0  0  0  0  0
    0.7500    3.2860    0.0000 C   0  0  0  0  0  0  0  0  0  0  0  0
    1.0838    4.7484    0.0000 O   0  0  0  0  0  0  0  0  0  0  0  0
   -0.7500    3.2860    0.0000 O   0  0  0  0  0  0  0  0  0  0  0  0
   -2.1015    2.6351    0.0000 C   0  0  0  0  0  0  0  0  0  0  0  0
   -3.0367    3.8079    0.0000 C   0  0  0  0  0  0  0  0  0  0  0  0
   -2.4887    5.2042    0.0000 C   0  0  0  0  0  0  0  0  0  0  0  0
   -3.0367    1.4624    0.0000 C   0  0  0  0  0  0  0  0  0  0  0  0
   -4.5199    1.2388    0.0000 C   0  0  0  0  0  0  0  0  0  0  0  0
   -3.7867    2.7614    0.0000 O   0  0  0  0  0  0  0  0  0  0  0  0
   -3.3705    0.0000    0.0000 C   0  0  0  0  0  0  0  0  0  0  0  0
   -4.8705    0.0000    0.0000 O   0  0  0  0  0  0  0  0  0  0  0  0
   -3.0367   -1.4624    0.0000 C   0  0  0  0  0  0  0  0  0  0  0  0
   -4.3881   -2.1132    0.0000 C   0  0  0  0  0  0  0  0  0  0  0  0
   -2.1015   -2.6351    0.0000 C   0  0  0  0  0  0  0  0  0  0  0  0
   -3.0367   -3.8079    0.0000 O   0  0  0  0  0  0  0  0  0  0  0  0
   -0.7500   -3.2860    0.0000 C   0  0  0  0  0  0  0  0  0  0  0  0
   -1.0838   -4.7484    0.0000 C   0  0  0  0  0  0  0  0  0  0  0  0
    0.7500   -3.2860    0.0000 C   0  0  0  0  0  0  0  0  0  0  0  0
    2.1015   -2.6351    0.0000 C   0  0  0  0  0  0  0  0  0  0  0  0
    3.5348   -3.0773    0.0000 C   0  0  0  0  0  0  0  0  0  0  0  0
    1.9669   -3.4209    0.0000 O   0  0  0  0  0  0  0  0  0  0  0  0
    5.8517   -4.2598    0.0000 O   0  0  0  0  0  0  0  0  0  0  0  0
    5.9638   -5.7557    0.0000 C   0  0  0  0  0  0  0  0  0  0  0  0
    7.3152   -6.4065    0.0000 C   0  0  0  0  0  0  0  0  0  0  0  0
    4.7244   -6.6006    0.0000 C   0  0  0  0  0  0  0  0  0  0  0  0
    3.3730   -5.9498    0.0000 C   0  0  0  0  0  0  0  0  0  0  0  0
    2.1336   -6.7948    0.0000 N   0  0  0  0  0  0  0  0  0  0  0  0
    2.2457   -8.2906    0.0000 C   0  0  0  0  0  0  0  0  0  0  0  0
    0.7129   -6.3136    0.0000 C   0  0  0  0  0  0  0  0  0  0  0  0
  1  2  1  0
  2  3  1  0
  3  4  2  0
  3  5  1  0
  6  5  1  1
  6  7  1  0
  7  8  1  6
  9  8  1  1
  9 10  1  0
 10 11  1  6
 10 12  1  0
 12 13  1  1
 14 13  1  6
 14 15  1  0
 15 16  1  0
 16 17  1  1
 16 18  1  0
 18 19  1  0
 16 20  1  0
 20 21  1  6
 20 22  1  0
 22 23  1  1
 22 24  1  0
 12 25  1  0
 25 26  1  6
 25 27  1  0
 27 28  2  0
 27 29  1  0
 29 30  1  0
 30 31  1  1
 31 32  1  0
 30 33  1  0
 33 34  1  1
 33 35  1  0
 33 36  1  0
 36 37  1  1
 36 38  1  0
 38 39  1  6
 38 40  1  0
 40 41  2  0
 40 42  1  0
 42 43  1  1
 42 44  1  0
 44 45  1  0
 45 46  1  1
 45 47  1  0
  7 48  1  0
 48 49  1  0
 49 50  1  6
 49 51  1  0
 51 52  1  0
 52 53  1  6
 53 54  1  0
 53 55  1  0
 52  6  1  0
 45  9  1  0
 24 14  1  0
M  END
>  <ChEMBL_IDs>  (396) 
CHEMBL2220427

>  <target_organism>  (396) 
Plasmodium falciparum

>  <target_molecule_pref_name>  (396) 
nan

>  <# Known Targets>  (396) 
nan

>  <Known Targets>  (396) 
nan

>  <smiles>  (396) 
CCC(=O)O[C@H]1[C@H](O[C@@H]2[C@@H](C)[C@H](O[C@H]3C[C@@](C)(OC)[C@@H](O)[C@H](C)O3)[C@@H](C)C(=O)O[C@H](CC)[C@@](C)(O)[C@H](O)[C@@H](C)C(=O)[C@H](C)C[C@@]2(C)O)O[C@H](C)C[C@@H]1N(C)C

$$$$

     RDKit          2D

 55 57  0  0  0  0  0  0  0  0999 V2000
   -1.9207   -4.8423    0.0000 C   0  0  0  0  0  0  0  0  0  0  0  0
   -0.6814   -3.9973    0.0000 C   0  0  0  0  0  0  0  0  0  0  0  0
    0.6701   -4.6482    0.0000 C   0  0  0  0  0  0  0  0  0  0  0  0
    0.5990   -6.1465    0.0000 O   0  0  0  0  0  0  0  0  0  0  0  0
    1.9094   -3.8032    0.0000 O   0  0  0  0  0  0  0  0  0  0  0  0
    3.2609   -4.4540    0.0000 C   0  0  0  0  0  0  0  0  0  0  0  0
    4.5002   -3.6090    0.0000 C   0  0  0  0  0  0  0  0  0  0  0  0
    4.3881   -2.1132    0.0000 O   0  0  0  0  0  0  0  0  0  0  0  0
    3.0367   -1.4624    0.0000 C   0  0  0  0  0  0  0  0  0  0  0  0
    3.3705    0.0000    0.0000 C   0  0  0  0  0  0  0  0  0  0  0  0
    4.8705    0.0000    0.0000 C   0  0  0  0  0  0  0  0  0  0  0  0
    3.0367    1.4624    0.0000 C   0  0  0  0  0  0  0  0  0  0  0  0
    4.3881    2.1132    0.0000 O   0  0  0  0  0  0  0  0  0  0  0  0
    4.5002    3.6090    0.0000 C   0  0  0  0  0  0  0  0  0  0  0  0
    5.8517    4.2598    0.0000 C   0  0  0  0  0  0  0  0  0  0  0  0
    5.9638    5.7557    0.0000 C   0  0  0  0  0  0  0  0  0  0  0  0
    6.5807    7.1229    0.0000 C   0  0  0  0  0  0  0  0  0  0  0  0
    7.4174    5.3855    0.0000 O   0  0  0  0  0  0  0  0  0  0  0  0
    8.4648    6.4593    0.0000 C   0  0  0  0  0  0  0  0  0  0  0  0
    4.7244    6.6006    0.0000 C   0  0  0  0  0  0  0  0  0  0  0  0
    4.8365    8.0964    0.0000 O   0  0  0  0  0  0  0  0  0  0  0  0
    3.3730    5.9498    0.0000 C   0  0  0  0  0  0  0  0  0  0  0  0
    2.1336    6.7948    0.0000 C   0  0  0  0  0  0  0  0  0  0  0  0
    3.2609    4.4540    0.0000 O   0  0  0  0  0  0  0  0  0  0  0  0
    2.1015    2.6351    0.0000 C   0  0  0  0  0  0  0  0  0  0  0  0
    2.6628    3.8629    0.0000 C   0  0  0  0  0  0  0  0  0  0  0  0
    0.7500    3.2860    0.0000 C   0  0  0  0  0  0  0  0  0  0  0  0
    1.0838    4.7484    0.0000 O   0  0  0  0  0  0  0  0  0  0  0  0
   -0.7500    3.2860    0.0000 O   0  0  0  0  0  0  0  0  0  0  0  0
   -2.1015    2.6351    0.0000 C   0  0  0  0  0  0  0  0  0  0  0  0
   -3.0367    3.8079    0.0000 C   0  0  0  0  0  0  0  0  0  0  0  0
   -2.4887    5.2042    0.0000 C   0  0  0  0  0  0  0  0  0  0  0  0
   -3.0367    1.4624    0.0000 C   0  0  0  0  0  0  0  0  0  0  0  0
   -4.5199    1.2388    0.0000 C   0  0  0  0  0  0  0  0  0  0  0  0
   -3.7867    2.7614    0.0000 O   0  0  0  0  0  0  0  0  0  0  0  0
   -3.3705    0.0000    0.0000 C   0  0  0  0  0  0  0  0  0  0  0  0
   -4.8705    0.0000    0.0000 O   0  0  0  0  0  0  0  0  0  0  0  0
   -3.0367   -1.4624    0.0000 C   0  0  0  0  0  0  0  0  0  0  0  0
   -4.3881   -2.1132    0.0000 C   0  0  0  0  0  0  0  0  0  0  0  0
   -2.1015   -2.6351    0.0000 C   0  0  0  0  0  0  0  0  0  0  0  0
   -3.0367   -3.8079    0.0000 O   0  0  0  0  0  0  0  0  0  0  0  0
   -0.7500   -3.2860    0.0000 C   0  0  0  0  0  0  0  0  0  0  0  0
   -1.0838   -4.7484    0.0000 C   0  0  0  0  0  0  0  0  0  0  0  0
    0.7500   -3.2860    0.0000 C   0  0  0  0  0  0  0  0  0  0  0  0
    2.1015   -2.6351    0.0000 C   0  0  0  0  0  0  0  0  0  0  0  0
    3.5348   -3.0773    0.0000 C   0  0  0  0  0  0  0  0  0  0  0  0
    1.9669   -3.4209    0.0000 O   0  0  0  0  0  0  0  0  0  0  0  0
    5.8517   -4.2598    0.0000 O   0  0  0  0  0  0  0  0  0  0  0  0
    5.9638   -5.7557    0.0000 C   0  0  0  0  0  0  0  0  0  0  0  0
    7.3152   -6.4065    0.0000 C   0  0  0  0  0  0  0  0  0  0  0  0
    4.7244   -6.6006    0.0000 C   0  0  0  0  0  0  0  0  0  0  0  0
    3.3730   -5.9498    0.0000 C   0  0  0  0  0  0  0  0  0  0  0  0
    2.1336   -6.7948    0.0000 N   0  0  0  0  0  0  0  0  0  0  0  0
    2.2457   -8.2906    0.0000 C   0  0  0  0  0  0  0  0  0  0  0  0
    0.7129   -6.3136    0.0000 C   0  0  0  0  0  0  0  0  0  0  0  0
  1  2  1  0
  2  3  1  0
  3  4  2  0
  3  5  1  0
  6  5  1  1
  6  7  1  0
  7  8  1  0
  9  8  1  1
  9 10  1  0
 10 11  1  0
 10 12  1  0
 12 13  1  1
 14 13  1  6
 14 15  1  0
 15 16  1  0
 16 17  1  1
 16 18  1  0
 18 19  1  0
 16 20  1  0
 20 21  1  0
 20 22  1  0
 22 23  1  0
 22 24  1  0
 12 25  1  0
 25 26  1  0
 25 27  1  0
 27 28  2  0
 27 29  1  0
 29 30  1  0
 30 31  1  0
 31 32  1  0
 30 33  1  0
 33 34  1  1
 33 35  1  0
 33 36  1  0
 36 37  1  0
 36 38  1  0
 38 39  1  1
 38 40  1  0
 40 41  2  0
 40 42  1  0
 42 43  1  0
 42 44  1  0
 44 45  1  0
 45 46  1  6
 45 47  1  0
  7 48  1  0
 48 49  1  0
 49 50  1  0
 49 51  1  0
 51 52  1  0
 52 53  1  0
 53 54  1  0
 53 55  1  0
 52  6  1  0
 45  9  1  0
 24 14  1  0
M  END
>  <ChEMBL_IDs>  (397) 
CHEMBL2219644

>  <target_organism>  (397) 
Plasmodium falciparum

>  <target_molecule_pref_name>  (397) 
nan

>  <# Known Targets>  (397) 
nan

>  <Known Targets>  (397) 
nan

>  <smiles>  (397) 
CCC(=O)O[C@H]1C(O[C@@H]2C(C)[C@H](O[C@H]3C[C@@](C)(OC)C(O)C(C)O3)C(C)C(=O)OC(CC)[C@@](C)(O)C(O)[C@H](C)C(=O)C(C)C[C@]2(C)O)OC(C)CC1N(C)C

$$$$

     RDKit          2D

 55 57  0  0  0  0  0  0  0  0999 V2000
   -1.9207   -4.8423    0.0000 C   0  0  0  0  0  0  0  0  0  0  0  0
   -0.6814   -3.9973    0.0000 C   0  0  0  0  0  0  0  0  0  0  0  0
    0.6701   -4.6482    0.0000 C   0  0  0  0  0  0  0  0  0  0  0  0
    0.5990   -6.1465    0.0000 O   0  0  0  0  0  0  0  0  0  0  0  0
    1.9094   -3.8032    0.0000 O   0  0  0  0  0  0  0  0  0  0  0  0
    3.2609   -4.4540    0.0000 C   0  0  0  0  0  0  0  0  0  0  0  0
    4.5002   -3.6090    0.0000 C   0  0  0  0  0  0  0  0  0  0  0  0
    4.3881   -2.1132    0.0000 O   0  0  0  0  0  0  0  0  0  0  0  0
    3.0367   -1.4624    0.0000 C   0  0  0  0  0  0  0  0  0  0  0  0
    3.3705    0.0000    0.0000 C   0  0  0  0  0  0  0  0  0  0  0  0
    4.8705    0.0000    0.0000 C   0  0  0  0  0  0  0  0  0  0  0  0
    3.0367    1.4624    0.0000 C   0  0  0  0  0  0  0  0  0  0  0  0
    4.3881    2.1132    0.0000 O   0  0  0  0  0  0  0  0  0  0  0  0
    4.5002    3.6090    0.0000 C   0  0  0  0  0  0  0  0  0  0  0  0
    5.8517    4.2598    0.0000 C   0  0  0  0  0  0  0  0  0  0  0  0
    5.9638    5.7557    0.0000 C   0  0  0  0  0  0  0  0  0  0  0  0
    6.5807    7.1229    0.0000 C   0  0  0  0  0  0  0  0  0  0  0  0
    7.4174    5.3855    0.0000 O   0  0  0  0  0  0  0  0  0  0  0  0
    7.8237    3.9416    0.0000 C   0  0  0  0  0  0  0  0  0  0  0  0
    4.7244    6.6006    0.0000 C   0  0  0  0  0  0  0  0  0  0  0  0
    4.8365    8.0964    0.0000 O   0  0  0  0  0  0  0  0  0  0  0  0
    3.3730    5.9498    0.0000 C   0  0  0  0  0  0  0  0  0  0  0  0
    2.1336    6.7948    0.0000 C   0  0  0  0  0  0  0  0  0  0  0  0
    3.2609    4.4540    0.0000 O   0  0  0  0  0  0  0  0  0  0  0  0
    2.1015    2.6351    0.0000 C   0  0  0  0  0  0  0  0  0  0  0  0
    2.6628    3.8629    0.0000 C   0  0  0  0  0  0  0  0  0  0  0  0
    0.7500    3.2860    0.0000 C   0  0  0  0  0  0  0  0  0  0  0  0
    1.0838    4.7484    0.0000 O   0  0  0  0  0  0  0  0  0  0  0  0
   -0.7500    3.2860    0.0000 O   0  0  0  0  0  0  0  0  0  0  0  0
   -2.1015    2.6351    0.0000 C   0  0  0  0  0  0  0  0  0  0  0  0
   -3.0367    3.8079    0.0000 C   0  0  0  0  0  0  0  0  0  0  0  0
   -2.4887    5.2042    0.0000 C   0  0  0  0  0  0  0  0  0  0  0  0
   -3.0367    1.4624    0.0000 C   0  0  0  0  0  0  0  0  0  0  0  0
   -4.5199    1.2388    0.0000 C   0  0  0  0  0  0  0  0  0  0  0  0
   -3.7867    2.7614    0.0000 O   0  0  0  0  0  0  0  0  0  0  0  0
   -3.3705    0.0000    0.0000 C   0  0  0  0  0  0  0  0  0  0  0  0
   -4.8705    0.0000    0.0000 O   0  0  0  0  0  0  0  0  0  0  0  0
   -3.0367   -1.4624    0.0000 C   0  0  0  0  0  0  0  0  0  0  0  0
   -4.3881   -2.1132    0.0000 C   0  0  0  0  0  0  0  0  0  0  0  0
   -2.1015   -2.6351    0.0000 C   0  0  0  0  0  0  0  0  0  0  0  0
   -3.0367   -3.8079    0.0000 O   0  0  0  0  0  0  0  0  0  0  0  0
   -0.7500   -3.2860    0.0000 C   0  0  0  0  0  0  0  0  0  0  0  0
   -1.0838   -4.7484    0.0000 C   0  0  0  0  0  0  0  0  0  0  0  0
    0.7500   -3.2860    0.0000 C   0  0  0  0  0  0  0  0  0  0  0  0
    2.1015   -2.6351    0.0000 C   0  0  0  0  0  0  0  0  0  0  0  0
    3.5348   -3.0773    0.0000 C   0  0  0  0  0  0  0  0  0  0  0  0
    1.9669   -3.4209    0.0000 O   0  0  0  0  0  0  0  0  0  0  0  0
    5.8517   -4.2598    0.0000 O   0  0  0  0  0  0  0  0  0  0  0  0
    5.9638   -5.7557    0.0000 C   0  0  0  0  0  0  0  0  0  0  0  0
    7.3152   -6.4065    0.0000 C   0  0  0  0  0  0  0  0  0  0  0  0
    4.7244   -6.6006    0.0000 C   0  0  0  0  0  0  0  0  0  0  0  0
    3.3730   -5.9498    0.0000 C   0  0  0  0  0  0  0  0  0  0  0  0
    2.1336   -6.7948    0.0000 N   0  0  0  0  0  0  0  0  0  0  0  0
    2.2457   -8.2906    0.0000 C   0  0  0  0  0  0  0  0  0  0  0  0
    0.7129   -6.3136    0.0000 C   0  0  0  0  0  0  0  0  0  0  0  0
  1  2  1  0
  2  3  1  0
  3  4  2  0
  3  5  1  0
  5  6  1  0
  6  7  1  0
  7  8  1  0
  8  9  1  0
  9 10  1  0
 10 11  1  0
 10 12  1  0
 12 13  1  0
 13 14  1  0
 14 15  1  0
 15 16  1  0
 16 17  1  0
 16 18  1  0
 18 19  1  0
 16 20  1  0
 20 21  1  0
 20 22  1  0
 22 23  1  0
 22 24  1  0
 12 25  1  0
 25 26  1  0
 25 27  1  0
 27 28  2  0
 27 29  1  0
 29 30  1  0
 30 31  1  0
 31 32  1  0
 30 33  1  0
 33 34  1  0
 33 35  1  0
 33 36  1  0
 36 37  1  0
 36 38  1  0
 38 39  1  0
 38 40  1  0
 40 41  2  0
 40 42  1  0
 42 43  1  0
 42 44  1  0
 44 45  1  0
 45 46  1  0
 45 47  1  0
  7 48  1  0
 48 49  1  0
 49 50  1  0
 49 51  1  0
 51 52  1  0
 52 53  1  0
 53 54  1  0
 53 55  1  0
 52  6  1  0
 45  9  1  0
 24 14  1  0
M  END
>  <ChEMBL_IDs>  (398) 
nan

>  <target_organism>  (398) 
nan

>  <target_molecule_pref_name>  (398) 
nan

>  <# Known Targets>  (398) 
nan

>  <Known Targets>  (398) 
nan

>  <smiles>  (398) 
CCC(=O)OC1C(OC2C(C)C(OC3CC(C)(OC)C(O)C(C)O3)C(C)C(=O)OC(CC)C(C)(O)C(O)C(C)C(=O)C(C)CC2(C)O)OC(C)CC1N(C)C

$$$$

     RDKit          2D

 55 57  0  0  0  0  0  0  0  0999 V2000
   -1.9207   -4.8423    0.0000 C   0  0  0  0  0  0  0  0  0  0  0  0
   -0.6814   -3.9973    0.0000 C   0  0  0  0  0  0  0  0  0  0  0  0
    0.6701   -4.6482    0.0000 C   0  0  0  0  0  0  0  0  0  0  0  0
    0.5990   -6.1465    0.0000 O   0  0  0  0  0  0  0  0  0  0  0  0
    1.9094   -3.8032    0.0000 O   0  0  0  0  0  0  0  0  0  0  0  0
    3.2609   -4.4540    0.0000 C   0  0  0  0  0  0  0  0  0  0  0  0
    4.5002   -3.6090    0.0000 C   0  0  0  0  0  0  0  0  0  0  0  0
    4.3881   -2.1132    0.0000 O   0  0  0  0  0  0  0  0  0  0  0  0
    3.0367   -1.4624    0.0000 C   0  0  0  0  0  0  0  0  0  0  0  0
    3.3705    0.0000    0.0000 C   0  0  0  0  0  0  0  0  0  0  0  0
    4.8705    0.0000    0.0000 C   0  0  0  0  0  0  0  0  0  0  0  0
    3.0367    1.4624    0.0000 C   0  0  0  0  0  0  0  0  0  0  0  0
    4.3881    2.1132    0.0000 O   0  0  0  0  0  0  0  0  0  0  0  0
    4.5002    3.6090    0.0000 C   0  0  0  0  0  0  0  0  0  0  0  0
    5.8517    4.2598    0.0000 C   0  0  0  0  0  0  0  0  0  0  0  0
    5.9638    5.7557    0.0000 C   0  0  0  0  0  0  0  0  0  0  0  0
    6.5807    7.1229    0.0000 C   0  0  0  0  0  0  0  0  0  0  0  0
    7.4174    5.3855    0.0000 O   0  0  0  0  0  0  0  0  0  0  0  0
    8.4648    6.4593    0.0000 C   0  0  0  0  0  0  0  0  0  0  0  0
    4.7244    6.6006    0.0000 C   0  0  0  0  0  0  0  0  0  0  0  0
    4.8365    8.0964    0.0000 O   0  0  0  0  0  0  0  0  0  0  0  0
    3.3730    5.9498    0.0000 C   0  0  0  0  0  0  0  0  0  0  0  0
    2.1336    6.7948    0.0000 C   0  0  0  0  0  0  0  0  0  0  0  0
    3.2609    4.4540    0.0000 O   0  0  0  0  0  0  0  0  0  0  0  0
    2.1015    2.6351    0.0000 C   0  0  0  0  0  0  0  0  0  0  0  0
    2.6628    3.8629    0.0000 C   0  0  0  0  0  0  0  0  0  0  0  0
    0.7500    3.2860    0.0000 C   0  0  0  0  0  0  0  0  0  0  0  0
    1.0838    4.7484    0.0000 O   0  0  0  0  0  0  0  0  0  0  0  0
   -0.7500    3.2860    0.0000 O   0  0  0  0  0  0  0  0  0  0  0  0
   -2.1015    2.6351    0.0000 C   0  0  0  0  0  0  0  0  0  0  0  0
   -3.0367    3.8079    0.0000 C   0  0  0  0  0  0  0  0  0  0  0  0
   -2.4887    5.2042    0.0000 C   0  0  0  0  0  0  0  0  0  0  0  0
   -3.0367    1.4624    0.0000 C   0  0  0  0  0  0  0  0  0  0  0  0
   -4.5199    1.2388    0.0000 C   0  0  0  0  0  0  0  0  0  0  0  0
   -3.7867    2.7614    0.0000 O   0  0  0  0  0  0  0  0  0  0  0  0
   -3.3705    0.0000    0.0000 C   0  0  0  0  0  0  0  0  0  0  0  0
   -4.8705    0.0000    0.0000 O   0  0  0  0  0  0  0  0  0  0  0  0
   -3.0367   -1.4624    0.0000 C   0  0  0  0  0  0  0  0  0  0  0  0
   -4.3881   -2.1132    0.0000 C   0  0  0  0  0  0  0  0  0  0  0  0
   -2.1015   -2.6351    0.0000 C   0  0  0  0  0  0  0  0  0  0  0  0
   -3.0367   -3.8079    0.0000 O   0  0  0  0  0  0  0  0  0  0  0  0
   -0.7500   -3.2860    0.0000 C   0  0  0  0  0  0  0  0  0  0  0  0
   -1.0838   -4.7484    0.0000 C   0  0  0  0  0  0  0  0  0  0  0  0
    0.7500   -3.2860    0.0000 C   0  0  0  0  0  0  0  0  0  0  0  0
    2.1015   -2.6351    0.0000 C   0  0  0  0  0  0  0  0  0  0  0  0
    3.5348   -3.0773    0.0000 C   0  0  0  0  0  0  0  0  0  0  0  0
    1.9669   -3.4209    0.0000 O   0  0  0  0  0  0  0  0  0  0  0  0
    5.8517   -4.2598    0.0000 O   0  0  0  0  0  0  0  0  0  0  0  0
    5.9638   -5.7557    0.0000 C   0  0  0  0  0  0  0  0  0  0  0  0
    7.3152   -6.4065    0.0000 C   0  0  0  0  0  0  0  0  0  0  0  0
    4.7244   -6.6006    0.0000 C   0  0  0  0  0  0  0  0  0  0  0  0
    3.3730   -5.9498    0.0000 C   0  0  0  0  0  0  0  0  0  0  0  0
    2.1336   -6.7948    0.0000 N   0  0  0  0  0  0  0  0  0  0  0  0
    2.2457   -8.2906    0.0000 C   0  0  0  0  0  0  0  0  0  0  0  0
    0.7129   -6.3136    0.0000 C   0  0  0  0  0  0  0  0  0  0  0  0
  1  2  1  0
  2  3  1  0
  3  4  2  0
  3  5  1  0
  6  5  1  1
  6  7  1  0
  7  8  1  6
  9  8  1  1
  9 10  1  0
 10 11  1  6
 10 12  1  0
 12 13  1  1
 14 13  1  6
 14 15  1  0
 15 16  1  0
 16 17  1  1
 16 18  1  0
 18 19  1  0
 16 20  1  0
 20 21  1  6
 20 22  1  0
 22 23  1  1
 22 24  1  0
 12 25  1  0
 25 26  1  6
 25 27  1  0
 27 28  2  0
 27 29  1  0
 29 30  1  0
 30 31  1  1
 31 32  1  0
 30 33  1  0
 33 34  1  1
 33 35  1  0
 33 36  1  0
 36 37  1  1
 36 38  1  0
 38 39  1  6
 38 40  1  0
 40 41  2  0
 40 42  1  0
 42 43  1  1
 42 44  1  0
 44 45  1  0
 45 46  1  1
 45 47  1  0
  7 48  1  0
 48 49  1  0
 49 50  1  6
 49 51  1  0
 51 52  1  0
 52 53  1  6
 53 54  1  0
 53 55  1  0
 52  6  1  0
 45  9  1  0
 24 14  1  0
M  END
>  <ChEMBL_IDs>  (399) 
CHEMBL2220427

>  <target_organism>  (399) 
Plasmodium falciparum

>  <target_molecule_pref_name>  (399) 
nan

>  <# Known Targets>  (399) 
nan

>  <Known Targets>  (399) 
nan

>  <smiles>  (399) 
CCC(=O)O[C@H]1[C@H](O[C@@H]2[C@@H](C)[C@H](O[C@H]3C[C@@](C)(OC)[C@@H](O)[C@H](C)O3)[C@@H](C)C(=O)O[C@H](CC)[C@@](C)(O)[C@H](O)[C@@H](C)C(=O)[C@H](C)C[C@@]2(C)O)O[C@H](C)C[C@@H]1N(C)C

$$$$

     RDKit          2D

 55 57  0  0  0  0  0  0  0  0999 V2000
   -1.9207   -4.8423    0.0000 C   0  0  0  0  0  0  0  0  0  0  0  0
   -0.6814   -3.9973    0.0000 C   0  0  0  0  0  0  0  0  0  0  0  0
    0.6701   -4.6482    0.0000 C   0  0  0  0  0  0  0  0  0  0  0  0
    0.5990   -6.1465    0.0000 O   0  0  0  0  0  0  0  0  0  0  0  0
    1.9094   -3.8032    0.0000 O   0  0  0  0  0  0  0  0  0  0  0  0
    3.2609   -4.4540    0.0000 C   0  0  0  0  0  0  0  0  0  0  0  0
    4.5002   -3.6090    0.0000 C   0  0  0  0  0  0  0  0  0  0  0  0
    4.3881   -2.1132    0.0000 O   0  0  0  0  0  0  0  0  0  0  0  0
    3.0367   -1.4624    0.0000 C   0  0  0  0  0  0  0  0  0  0  0  0
    3.3705    0.0000    0.0000 C   0  0  0  0  0  0  0  0  0  0  0  0
    4.8705    0.0000    0.0000 C   0  0  0  0  0  0  0  0  0  0  0  0
    3.0367    1.4624    0.0000 C   0  0  0  0  0  0  0  0  0  0  0  0
    4.3881    2.1132    0.0000 O   0  0  0  0  0  0  0  0  0  0  0  0
    4.5002    3.6090    0.0000 C   0  0  0  0  0  0  0  0  0  0  0  0
    5.8517    4.2598    0.0000 C   0  0  0  0  0  0  0  0  0  0  0  0
    5.9638    5.7557    0.0000 C   0  0  0  0  0  0  0  0  0  0  0  0
    6.5807    7.1229    0.0000 C   0  0  0  0  0  0  0  0  0  0  0  0
    7.4174    5.3855    0.0000 O   0  0  0  0  0  0  0  0  0  0  0  0
    8.4648    6.4593    0.0000 C   0  0  0  0  0  0  0  0  0  0  0  0
    4.7244    6.6006    0.0000 C   0  0  0  0  0  0  0  0  0  0  0  0
    4.8365    8.0964    0.0000 O   0  0  0  0  0  0  0  0  0  0  0  0
    3.3730    5.9498    0.0000 C   0  0  0  0  0  0  0  0  0  0  0  0
    2.1336    6.7948    0.0000 C   0  0  0  0  0  0  0  0  0  0  0  0
    3.2609    4.4540    0.0000 O   0  0  0  0  0  0  0  0  0  0  0  0
    2.1015    2.6351    0.0000 C   0  0  0  0  0  0  0  0  0  0  0  0
    2.6628    3.8629    0.0000 C   0  0  0  0  0  0  0  0  0  0  0  0
    0.7500    3.2860    0.0000 C   0  0  0  0  0  0  0  0  0  0  0  0
    1.0838    4.7484    0.0000 O   0  0  0  0  0  0  0  0  0  0  0  0
   -0.7500    3.2860    0.0000 O   0  0  0  0  0  0  0  0  0  0  0  0
   -2.1015    2.6351    0.0000 C   0  0  0  0  0  0  0  0  0  0  0  0
   -3.0367    3.8079    0.0000 C   0  0  0  0  0  0  0  0  0  0  0  0
   -2.4887    5.2042    0.0000 C   0  0  0  0  0  0  0  0  0  0  0  0
   -3.0367    1.4624    0.0000 C   0  0  0  0  0  0  0  0  0  0  0  0
   -4.5199    1.2388    0.0000 C   0  0  0  0  0  0  0  0  0  0  0  0
   -3.7867    2.7614    0.0000 O   0  0  0  0  0  0  0  0  0  0  0  0
   -3.3705    0.0000    0.0000 C   0  0  0  0  0  0  0  0  0  0  0  0
   -4.8705    0.0000    0.0000 O   0  0  0  0  0  0  0  0  0  0  0  0
   -3.0367   -1.4624    0.0000 C   0  0  0  0  0  0  0  0  0  0  0  0
   -4.3881   -2.1132    0.0000 C   0  0  0  0  0  0  0  0  0  0  0  0
   -2.1015   -2.6351    0.0000 C   0  0  0  0  0  0  0  0  0  0  0  0
   -3.0367   -3.8079    0.0000 O   0  0  0  0  0  0  0  0  0  0  0  0
   -0.7500   -3.2860    0.0000 C   0  0  0  0  0  0  0  0  0  0  0  0
   -1.0838   -4.7484    0.0000 C   0  0  0  0  0  0  0  0  0  0  0  0
    0.7500   -3.2860    0.0000 C   0  0  0  0  0  0  0  0  0  0  0  0
    2.1015   -2.6351    0.0000 C   0  0  0  0  0  0  0  0  0  0  0  0
    3.5348   -3.0773    0.0000 C   0  0  0  0  0  0  0  0  0  0  0  0
    1.9669   -3.4209    0.0000 O   0  0  0  0  0  0  0  0  0  0  0  0
    5.8517   -4.2598    0.0000 O   0  0  0  0  0  0  0  0  0  0  0  0
    5.9638   -5.7557    0.0000 C   0  0  0  0  0  0  0  0  0  0  0  0
    7.3152   -6.4065    0.0000 C   0  0  0  0  0  0  0  0  0  0  0  0
    4.7244   -6.6006    0.0000 C   0  0  0  0  0  0  0  0  0  0  0  0
    3.3730   -5.9498    0.0000 C   0  0  0  0  0  0  0  0  0  0  0  0
    2.1336   -6.7948    0.0000 N   0  0  0  0  0  0  0  0  0  0  0  0
    2.2457   -8.2906    0.0000 C   0  0  0  0  0  0  0  0  0  0  0  0
    0.7129   -6.3136    0.0000 C   0  0  0  0  0  0  0  0  0  0  0  0
  1  2  1  0
  2  3  1  0
  3  4  2  0
  3  5  1  0
  6  5  1  1
  6  7  1  0
  7  8  1  0
  9  8  1  1
  9 10  1  0
 10 11  1  0
 10 12  1  0
 12 13  1  1
 14 13  1  6
 14 15  1  0
 15 16  1  0
 16 17  1  1
 16 18  1  0
 18 19  1  0
 16 20  1  0
 20 21  1  0
 20 22  1  0
 22 23  1  0
 22 24  1  0
 12 25  1  0
 25 26  1  0
 25 27  1  0
 27 28  2  0
 27 29  1  0
 29 30  1  0
 30 31  1  0
 31 32  1  0
 30 33  1  0
 33 34  1  1
 33 35  1  0
 33 36  1  0
 36 37  1  0
 36 38  1  0
 38 39  1  1
 38 40  1  0
 40 41  2  0
 40 42  1  0
 42 43  1  0
 42 44  1  0
 44 45  1  0
 45 46  1  6
 45 47  1  0
  7 48  1  0
 48 49  1  0
 49 50  1  0
 49 51  1  0
 51 52  1  0
 52 53  1  0
 53 54  1  0
 53 55  1  0
 52  6  1  0
 45  9  1  0
 24 14  1  0
M  END
>  <ChEMBL_IDs>  (400) 
CHEMBL2219644

>  <target_organism>  (400) 
Plasmodium falciparum

>  <target_molecule_pref_name>  (400) 
nan

>  <# Known Targets>  (400) 
nan

>  <Known Targets>  (400) 
nan

>  <smiles>  (400) 
CCC(=O)O[C@H]1C(O[C@@H]2C(C)[C@H](O[C@H]3C[C@@](C)(OC)C(O)C(C)O3)C(C)C(=O)OC(CC)[C@@](C)(O)C(O)[C@H](C)C(=O)C(C)C[C@]2(C)O)OC(C)CC1N(C)C

$$$$

     RDKit          2D

 55 57  0  0  0  0  0  0  0  0999 V2000
    7.8705    2.5981    0.0000 C   0  0  0  0  0  0  0  0  0  0  0  0
    7.1205    1.2990    0.0000 C   0  0  0  0  0  0  0  0  0  0  0  0
    5.6205    1.2990    0.0000 C   0  0  0  0  0  0  0  0  0  0  0  0
    4.8705    2.5981    0.0000 O   0  0  0  0  0  0  0  0  0  0  0  0
    4.8705    0.0000    0.0000 O   0  0  0  0  0  0  0  0  0  0  0  0
    3.3705    0.0000    0.0000 C   0  0  0  0  0  0  0  0  0  0  0  0
    3.0367   -1.4624    0.0000 C   0  0  0  0  0  0  0  0  0  0  0  0
    4.3881   -2.1132    0.0000 C   0  0  0  0  0  0  0  0  0  0  0  0
    2.1015   -2.6351    0.0000 C   0  0  0  0  0  0  0  0  0  0  0  0
    3.0367   -3.8079    0.0000 O   0  0  0  0  0  0  0  0  0  0  0  0
    0.7500   -3.2860    0.0000 C   0  0  0  0  0  0  0  0  0  0  0  0
    1.0838   -4.7484    0.0000 C   0  0  0  0  0  0  0  0  0  0  0  0
   -0.7500   -3.2860    0.0000 C   0  0  0  0  0  0  0  0  0  0  0  0
   -2.1015   -2.6351    0.0000 C   0  0  0  0  0  0  0  0  0  0  0  0
   -2.2135   -4.1309    0.0000 C   0  0  0  0  0  0  0  0  0  0  0  0
   -3.5348   -3.0773    0.0000 O   0  0  0  0  0  0  0  0  0  0  0  0
   -3.0367   -1.4624    0.0000 C   0  0  0  0  0  0  0  0  0  0  0  0
   -4.3881   -2.1132    0.0000 O   0  0  0  0  0  0  0  0  0  0  0  0
   -4.5002   -3.6090    0.0000 C   0  0  0  0  0  0  0  0  0  0  0  0
   -3.2609   -4.4540    0.0000 O   0  0  0  0  0  0  0  0  0  0  0  0
   -3.3730   -5.9498    0.0000 C   0  0  0  0  0  0  0  0  0  0  0  0
   -2.1336   -6.7948    0.0000 C   0  0  0  0  0  0  0  0  0  0  0  0
   -4.7244   -6.6006    0.0000 C   0  0  0  0  0  0  0  0  0  0  0  0
   -5.9638   -5.7557    0.0000 C   0  0  0  0  0  0  0  0  0  0  0  0
   -7.3152   -6.4065    0.0000 N   0  0  0  0  0  0  0  0  0  0  0  0
   -7.4273   -7.9023    0.0000 C   0  0  0  0  0  0  0  0  0  0  0  0
   -8.5546   -5.5615    0.0000 C   0  0  0  0  0  0  0  0  0  0  0  0
   -5.8517   -4.2598    0.0000 C   0  0  0  0  0  0  0  0  0  0  0  0
   -7.0910   -3.4149    0.0000 O   0  0  0  0  0  0  0  0  0  0  0  0
   -3.3705    0.0000    0.0000 C   0  0  0  0  0  0  0  0  0  0  0  0
   -4.8705    0.0000    0.0000 C   0  0  0  0  0  0  0  0  0  0  0  0
   -3.0367    1.4624    0.0000 C   0  0  0  0  0  0  0  0  0  0  0  0
   -4.3881    2.1132    0.0000 O   0  0  0  0  0  0  0  0  0  0  0  0
   -4.5002    3.6090    0.0000 C   0  0  0  0  0  0  0  0  0  0  0  0
   -5.8517    4.2598    0.0000 C   0  0  0  0  0  0  0  0  0  0  0  0
   -5.9638    5.7557    0.0000 C   0  0  0  0  0  0  0  0  0  0  0  0
   -6.5807    7.1229    0.0000 C   0  0  0  0  0  0  0  0  0  0  0  0
   -7.4174    5.3855    0.0000 O   0  0  0  0  0  0  0  0  0  0  0  0
   -8.4648    6.4593    0.0000 C   0  0  0  0  0  0  0  0  0  0  0  0
   -4.7244    6.6006    0.0000 C   0  0  0  0  0  0  0  0  0  0  0  0
   -4.8365    8.0964    0.0000 O   0  0  0  0  0  0  0  0  0  0  0  0
   -3.3730    5.9498    0.0000 C   0  0  0  0  0  0  0  0  0  0  0  0
   -2.1336    6.7948    0.0000 C   0  0  0  0  0  0  0  0  0  0  0  0
   -3.2609    4.4540    0.0000 O   0  0  0  0  0  0  0  0  0  0  0  0
   -2.1015    2.6351    0.0000 C   0  0  0  0  0  0  0  0  0  0  0  0
   -2.6628    3.8629    0.0000 C   0  0  0  0  0  0  0  0  0  0  0  0
   -0.7500    3.2860    0.0000 C   0  0  0  0  0  0  0  0  0  0  0  0
   -1.0838    4.7484    0.0000 O   0  0  0  0  0  0  0  0  0  0  0  0
    0.7500    3.2860    0.0000 O   0  0  0  0  0  0  0  0  0  0  0  0
    2.1015    2.6351    0.0000 C   0  0  0  0  0  0  0  0  0  0  0  0
    3.0367    3.8079    0.0000 C   0  0  0  0  0  0  0  0  0  0  0  0
    4.5199    3.5843    0.0000 C   0  0  0  0  0  0  0  0  0  0  0  0
    3.0367    1.4624    0.0000 C   0  0  0  0  0  0  0  0  0  0  0  0
    3.7867    2.7614    0.0000 C   0  0  0  0  0  0  0  0  0  0  0  0
    4.5199    1.2388    0.0000 O   0  0  0  0  0  0  0  0  0  0  0  0
  1  2  1  0
  2  3  1  0
  3  4  2  0
  3  5  1  0
  5  6  1  0
  6  7  1  0
  7  8  1  0
  7  9  1  0
  9 10  2  0
  9 11  1  0
 11 12  1  0
 11 13  1  0
 13 14  1  0
 14 15  1  0
 14 16  1  0
 14 17  1  0
 17 18  1  0
 18 19  1  0
 19 20  1  0
 20 21  1  0
 21 22  1  0
 21 23  1  0
 23 24  1  0
 24 25  1  0
 25 26  1  0
 25 27  1  0
 24 28  1  0
 28 29  1  0
 17 30  1  0
 30 31  1  0
 30 32  1  0
 32 33  1  0
 33 34  1  0
 34 35  1  0
 35 36  1  0
 36 37  1  0
 36 38  1  0
 38 39  1  0
 36 40  1  0
 40 41  1  0
 40 42  1  0
 42 43  1  0
 42 44  1  0
 32 45  1  0
 45 46  1  0
 45 47  1  0
 47 48  2  0
 47 49  1  0
 49 50  1  0
 50 51  1  0
 51 52  1  0
 50 53  1  0
 53 54  1  0
 53 55  1  0
 53  6  1  0
 28 19  1  0
 44 34  1  0
M  END
>  <ChEMBL_IDs>  (401) 
nan

>  <target_organism>  (401) 
nan

>  <target_molecule_pref_name>  (401) 
nan

>  <# Known Targets>  (401) 
nan

>  <Known Targets>  (401) 
nan

>  <smiles>  (401) 
CCC(=O)OC1C(C)C(=O)C(C)CC(C)(O)C(OC2OC(C)CC(N(C)C)C2O)C(C)C(OC2CC(C)(OC)C(O)C(C)O2)C(C)C(=O)OC(CC)C1(C)O

$$$$

     RDKit          2D

 55 57  0  0  0  0  0  0  0  0999 V2000
    5.6205   -1.2990    0.0000 C   0  0  0  0  0  0  0  0  0  0  0  0
    4.8705    0.0000    0.0000 C   0  0  0  0  0  0  0  0  0  0  0  0
    3.3705    0.0000    0.0000 C   0  0  0  0  0  0  0  0  0  0  0  0
    3.0367   -1.4624    0.0000 O   0  0  0  0  0  0  0  0  0  0  0  0
    2.1015   -2.6351    0.0000 C   0  0  0  0  0  0  0  0  0  0  0  0
    3.0367   -3.8079    0.0000 O   0  0  0  0  0  0  0  0  0  0  0  0
    0.7500   -3.2860    0.0000 C   0  0  0  0  0  0  0  0  0  0  0  0
    1.3600   -4.4903    0.0000 C   0  0  0  0  0  0  0  0  0  0  0  0
   -0.7500   -3.2860    0.0000 C   0  0  0  0  0  0  0  0  0  0  0  0
   -1.0838   -4.7484    0.0000 O   0  0  0  0  0  0  0  0  0  0  0  0
    0.0158   -5.7686    0.0000 C   0  0  0  0  0  0  0  0  0  0  0  0
   -0.3180   -7.2310    0.0000 C   0  0  0  0  0  0  0  0  0  0  0  0
    0.7816   -8.2513    0.0000 C   0  0  0  0  0  0  0  0  0  0  0  0
    1.4659   -9.5861    0.0000 C   0  0  0  0  0  0  0  0  0  0  0  0
   -0.4141   -9.1570    0.0000 O   0  0  0  0  0  0  0  0  0  0  0  0
   -0.2276  -10.6453    0.0000 C   0  0  0  0  0  0  0  0  0  0  0  0
    2.2150   -7.8091    0.0000 C   0  0  0  0  0  0  0  0  0  0  0  0
    3.3145   -8.8294    0.0000 O   0  0  0  0  0  0  0  0  0  0  0  0
    2.5487   -6.3467    0.0000 C   0  0  0  0  0  0  0  0  0  0  0  0
    3.9821   -5.9046    0.0000 C   0  0  0  0  0  0  0  0  0  0  0  0
    1.4492   -5.3265    0.0000 O   0  0  0  0  0  0  0  0  0  0  0  0
   -2.1015   -2.6351    0.0000 C   0  0  0  0  0  0  0  0  0  0  0  0
   -3.0367   -3.8079    0.0000 C   0  0  0  0  0  0  0  0  0  0  0  0
   -3.0367   -1.4624    0.0000 C   0  0  0  0  0  0  0  0  0  0  0  0
   -4.3881   -2.1132    0.0000 O   0  0  0  0  0  0  0  0  0  0  0  0
   -5.6275   -1.2682    0.0000 C   0  0  0  0  0  0  0  0  0  0  0  0
   -5.5154    0.2276    0.0000 O   0  0  0  0  0  0  0  0  0  0  0  0
   -6.7548    1.0725    0.0000 C   0  0  0  0  0  0  0  0  0  0  0  0
   -6.4612    2.5435    0.0000 C   0  0  0  0  0  0  0  0  0  0  0  0
   -8.1062    0.4217    0.0000 C   0  0  0  0  0  0  0  0  0  0  0  0
   -8.2183   -1.0741    0.0000 C   0  0  0  0  0  0  0  0  0  0  0  0
   -9.5698   -1.7249    0.0000 N   0  0  0  0  0  0  0  0  0  0  0  0
  -10.8091   -0.8799    0.0000 C   0  0  0  0  0  0  0  0  0  0  0  0
   -9.6819   -3.2207    0.0000 C   0  0  0  0  0  0  0  0  0  0  0  0
   -6.9790   -1.9191    0.0000 C   0  0  0  0  0  0  0  0  0  0  0  0
   -7.0910   -3.4149    0.0000 O   0  0  0  0  0  0  0  0  0  0  0  0
   -3.3705    0.0000    0.0000 C   0  0  0  0  0  0  0  0  0  0  0  0
   -4.6098   -0.8450    0.0000 C   0  0  0  0  0  0  0  0  0  0  0  0
   -4.6098    0.8450    0.0000 O   0  0  0  0  0  0  0  0  0  0  0  0
   -5.9613    0.1942    0.0000 C   0  0  0  0  0  0  0  0  0  0  0  0
   -7.2006    1.0391    0.0000 C   0  0  0  0  0  0  0  0  0  0  0  0
   -8.6694    0.7347    0.0000 C   0  0  0  0  0  0  0  0  0  0  0  0
   -7.2717    2.5374    0.0000 O   0  0  0  0  0  0  0  0  0  0  0  0
   -3.0367    1.4624    0.0000 C   0  0  0  0  0  0  0  0  0  0  0  0
   -2.1015    2.6351    0.0000 C   0  0  0  0  0  0  0  0  0  0  0  0
   -3.0367    3.8079    0.0000 C   0  0  0  0  0  0  0  0  0  0  0  0
   -0.7500    3.2860    0.0000 C   0  0  0  0  0  0  0  0  0  0  0  0
   -1.0838    4.7484    0.0000 O   0  0  0  0  0  0  0  0  0  0  0  0
    0.7500    3.2860    0.0000 C   0  0  0  0  0  0  0  0  0  0  0  0
    1.0838    4.7484    0.0000 C   0  0  0  0  0  0  0  0  0  0  0  0
    2.1015    2.6351    0.0000 C   0  0  0  0  0  0  0  0  0  0  0  0
    3.0367    3.8079    0.0000 O   0  0  0  0  0  0  0  0  0  0  0  0
    3.0367    1.4624    0.0000 C   0  0  0  0  0  0  0  0  0  0  0  0
    3.7867    2.7614    0.0000 C   0  0  0  0  0  0  0  0  0  0  0  0
    4.5199    1.2388    0.0000 O   0  0  0  0  0  0  0  0  0  0  0  0
  1  2  1  0
  3  2  1  1
  3  4  1  0
  4  5  1  0
  5  6  2  0
  5  7  1  0
  7  8  1  6
  7  9  1  0
  9 10  1  1
 11 10  1  6
 11 12  1  0
 12 13  1  0
 13 14  1  1
 13 15  1  0
 15 16  1  0
 13 17  1  0
 17 18  1  6
 17 19  1  0
 19 20  1  1
 19 21  1  0
  9 22  1  0
 22 23  1  6
 22 24  1  0
 24 25  1  1
 26 25  1  1
 26 27  1  0
 27 28  1  0
 28 29  1  1
 28 30  1  0
 30 31  1  0
 31 32  1  1
 32 33  1  0
 32 34  1  0
 31 35  1  0
 35 36  1  6
 24 37  1  0
 37 38  1  6
 37 39  1  0
 39 40  1  0
 40 41  1  0
 41 42  1  0
 41 43  2  0
 37 44  1  0
 44 45  1  0
 45 46  1  1
 45 47  1  0
 47 48  2  0
 47 49  1  0
 49 50  1  6
 49 51  1  0
 51 52  1  1
 51 53  1  0
 53 54  1  1
 53 55  1  0
 53  3  1  0
 21 11  1  0
 35 26  1  0
M  END
>  <ChEMBL_IDs>  (402) 
CHEMBL424558

>  <target_organism>  (402) 
Rattus norvegicus

>  <target_molecule_pref_name>  (402) 
nan

>  <# Known Targets>  (402) 
nan

>  <Known Targets>  (402) 
nan

>  <smiles>  (402) 
CC[C@H]1OC(=O)[C@H](C)[C@@H](O[C@H]2C[C@@](C)(OC)[C@@H](O)[C@H](C)O2)[C@H](C)[C@@H](O[C@@H]2O[C@H](C)C[C@H](N(C)C)[C@H]2O)[C@@](C)(OCC(C)=O)C[C@@H](C)C(=O)[C@H](C)[C@@H](O)[C@]1(C)O

$$$$

     RDKit          2D

 56 58  0  0  0  0  0  0  0  0999 V2000
   -3.1994   -4.4092    0.0000 C   0  0  0  0  0  0  0  0  0  0  0  0
   -1.9207   -4.8423    0.0000 C   0  0  0  0  0  0  0  0  0  0  0  0
   -0.6814   -3.9973    0.0000 O   0  0  0  0  0  0  0  0  0  0  0  0
    0.6701   -4.6482    0.0000 C   0  0  0  0  0  0  0  0  0  0  0  0
    0.5990   -6.1465    0.0000 O   0  0  0  0  0  0  0  0  0  0  0  0
    1.9094   -3.8032    0.0000 O   0  0  0  0  0  0  0  0  0  0  0  0
    3.2609   -4.4540    0.0000 C   0  0  0  0  0  0  0  0  0  0  0  0
    4.5002   -3.6090    0.0000 C   0  0  0  0  0  0  0  0  0  0  0  0
    4.3881   -2.1132    0.0000 O   0  0  0  0  0  0  0  0  0  0  0  0
    3.0367   -1.4624    0.0000 C   0  0  0  0  0  0  0  0  0  0  0  0
    3.3705    0.0000    0.0000 C   0  0  0  0  0  0  0  0  0  0  0  0
    4.8705    0.0000    0.0000 C   0  0  0  0  0  0  0  0  0  0  0  0
    3.0367    1.4624    0.0000 C   0  0  0  0  0  0  0  0  0  0  0  0
    4.3881    2.1132    0.0000 O   0  0  0  0  0  0  0  0  0  0  0  0
    4.5002    3.6090    0.0000 C   0  0  0  0  0  0  0  0  0  0  0  0
    5.8517    4.2598    0.0000 C   0  0  0  0  0  0  0  0  0  0  0  0
    5.9638    5.7557    0.0000 C   0  0  0  0  0  0  0  0  0  0  0  0
    6.5807    7.1229    0.0000 C   0  0  0  0  0  0  0  0  0  0  0  0
    7.4174    5.3855    0.0000 O   0  0  0  0  0  0  0  0  0  0  0  0
    8.4648    6.4593    0.0000 C   0  0  0  0  0  0  0  0  0  0  0  0
    4.7244    6.6006    0.0000 C   0  0  0  0  0  0  0  0  0  0  0  0
    4.8365    8.0964    0.0000 O   0  0  0  0  0  0  0  0  0  0  0  0
    3.3730    5.9498    0.0000 C   0  0  0  0  0  0  0  0  0  0  0  0
    2.1336    6.7948    0.0000 C   0  0  0  0  0  0  0  0  0  0  0  0
    3.2609    4.4540    0.0000 O   0  0  0  0  0  0  0  0  0  0  0  0
    2.1015    2.6351    0.0000 C   0  0  0  0  0  0  0  0  0  0  0  0
    2.6628    3.8629    0.0000 C   0  0  0  0  0  0  0  0  0  0  0  0
    0.7500    3.2860    0.0000 C   0  0  0  0  0  0  0  0  0  0  0  0
    1.0838    4.7484    0.0000 O   0  0  0  0  0  0  0  0  0  0  0  0
   -0.7500    3.2860    0.0000 O   0  0  0  0  0  0  0  0  0  0  0  0
   -2.1015    2.6351    0.0000 C   0  0  0  0  0  0  0  0  0  0  0  0
   -3.0367    3.8079    0.0000 C   0  0  0  0  0  0  0  0  0  0  0  0
   -2.4887    5.2042    0.0000 C   0  0  0  0  0  0  0  0  0  0  0  0
   -3.0367    1.4624    0.0000 C   0  0  0  0  0  0  0  0  0  0  0  0
   -4.5199    1.2388    0.0000 C   0  0  0  0  0  0  0  0  0  0  0  0
   -3.7867    2.7614    0.0000 O   0  0  0  0  0  0  0  0  0  0  0  0
   -3.3705    0.0000    0.0000 C   0  0  0  0  0  0  0  0  0  0  0  0
   -4.8705    0.0000    0.0000 O   0  0  0  0  0  0  0  0  0  0  0  0
   -3.0367   -1.4624    0.0000 C   0  0  0  0  0  0  0  0  0  0  0  0
   -4.3881   -2.1132    0.0000 C   0  0  0  0  0  0  0  0  0  0  0  0
   -2.1015   -2.6351    0.0000 C   0  0  0  0  0  0  0  0  0  0  0  0
   -3.0655   -3.5801    0.0000 O   0  0  0  0  0  0  0  0  0  0  0  0
   -0.7500   -3.2860    0.0000 C   0  0  0  0  0  0  0  0  0  0  0  0
   -1.0838   -4.7484    0.0000 C   0  0  0  0  0  0  0  0  0  0  0  0
    0.7500   -3.2860    0.0000 C   0  0  0  0  0  0  0  0  0  0  0  0
    2.1015   -2.6351    0.0000 C   0  0  0  0  0  0  0  0  0  0  0  0
    3.5348   -3.0773    0.0000 C   0  0  0  0  0  0  0  0  0  0  0  0
    1.8483   -4.1136    0.0000 O   0  0  0  0  0  0  0  0  0  0  0  0
    5.8517   -4.2598    0.0000 O   0  0  0  0  0  0  0  0  0  0  0  0
    5.9638   -5.7557    0.0000 C   0  0  0  0  0  0  0  0  0  0  0  0
    7.3152   -6.4065    0.0000 C   0  0  0  0  0  0  0  0  0  0  0  0
    4.7244   -6.6006    0.0000 C   0  0  0  0  0  0  0  0  0  0  0  0
    3.3730   -5.9498    0.0000 C   0  0  0  0  0  0  0  0  0  0  0  0
    2.1336   -6.7948    0.0000 N   0  0  0  0  0  0  0  0  0  0  0  0
    2.2457   -8.2906    0.0000 C   0  0  0  0  0  0  0  0  0  0  0  0
    0.7129   -6.3136    0.0000 C   0  0  0  0  0  0  0  0  0  0  0  0
  1  2  1  0
  2  3  1  0
  3  4  1  0
  4  5  2  0
  4  6  1  0
  7  6  1  1
  7  8  1  0
  8  9  1  6
 10  9  1  1
 10 11  1  0
 11 12  1  6
 11 13  1  0
 13 14  1  1
 15 14  1  6
 15 16  1  0
 16 17  1  0
 17 18  1  1
 17 19  1  0
 19 20  1  0
 17 21  1  0
 21 22  1  6
 21 23  1  0
 23 24  1  1
 23 25  1  0
 13 26  1  0
 26 27  1  6
 26 28  1  0
 28 29  2  0
 28 30  1  0
 30 31  1  0
 31 32  1  1
 32 33  1  0
 31 34  1  0
 34 35  1  1
 34 36  1  0
 34 37  1  0
 37 38  1  1
 37 39  1  0
 39 40  1  6
 39 41  1  0
 41 42  2  0
 41 43  1  0
 43 44  1  1
 43 45  1  0
 45 46  1  0
 46 47  1  1
 46 48  1  0
  8 49  1  0
 49 50  1  0
 50 51  1  6
 50 52  1  0
 52 53  1  0
 53 54  1  6
 54 55  1  0
 54 56  1  0
 53  7  1  0
 46 10  1  0
 25 15  1  0
M  END
>  <ChEMBL_IDs>  (403) 
CHEMBL2106182

>  <target_organism>  (403) 
Plasmodium falciparum

>  <target_molecule_pref_name>  (403) 
nan

>  <# Known Targets>  (403) 
nan

>  <Known Targets>  (403) 
nan

>  <smiles>  (403) 
CCOC(=O)O[C@H]1[C@H](O[C@@H]2[C@@H](C)[C@H](O[C@H]3C[C@@](C)(OC)[C@@H](O)[C@H](C)O3)[C@@H](C)C(=O)O[C@H](CC)[C@@](C)(O)[C@H](O)[C@@H](C)C(=O)[C@H](C)C[C@@]2(C)O)O[C@H](C)C[C@@H]1N(C)C

$$$$

     RDKit          2D

 54 56  0  0  0  0  0  0  0  0999 V2000
    8.3732    9.6786    0.0000 C   0  0  0  0  0  0  0  0  0  0  0  0
    7.2941    8.6367    0.0000 C   0  0  0  0  0  0  0  0  0  0  0  0
    6.2151    7.5947    0.0000 C   0  0  0  0  0  0  0  0  0  0  0  0
    5.1361    6.5527    0.0000 C   0  0  0  0  0  0  0  0  0  0  0  0
    4.2973    7.7962    0.0000 O   0  0  0  0  0  0  0  0  0  0  0  0
    3.7658    5.9426    0.0000 C   0  0  0  0  0  0  0  0  0  0  0  0
    2.5523    6.8242    0.0000 C   0  0  0  0  0  0  0  0  0  0  0  0
    3.6090    4.4508    0.0000 O   0  0  0  0  0  0  0  0  0  0  0  0
    4.8225    3.5691    0.0000 C   0  0  0  0  0  0  0  0  0  0  0  0
    4.6658    2.0773    0.0000 O   0  0  0  0  0  0  0  0  0  0  0  0
    3.2954    1.4672    0.0000 C   0  0  0  0  0  0  0  0  0  0  0  0
    3.6073    0.0000    0.0000 C   0  0  0  0  0  0  0  0  0  0  0  0
    5.1073    0.0000    0.0000 C   0  0  0  0  0  0  0  0  0  0  0  0
    3.2954   -1.4672    0.0000 C   0  0  0  0  0  0  0  0  0  0  0  0
    4.6658   -2.0773    0.0000 O   0  0  0  0  0  0  0  0  0  0  0  0
    4.8225   -3.5691    0.0000 C   0  0  0  0  0  0  0  0  0  0  0  0
    3.6090   -4.4508    0.0000 O   0  0  0  0  0  0  0  0  0  0  0  0
    3.7658   -5.9426    0.0000 C   0  0  0  0  0  0  0  0  0  0  0  0
    2.5523   -6.8242    0.0000 C   0  0  0  0  0  0  0  0  0  0  0  0
    5.1361   -6.5527    0.0000 C   0  0  0  0  0  0  0  0  0  0  0  0
    6.3497   -5.6710    0.0000 C   0  0  0  0  0  0  0  0  0  0  0  0
    7.7200   -6.2811    0.0000 N   0  0  0  0  0  0  0  0  0  0  0  0
    7.8768   -7.7729    0.0000 C   0  0  0  0  0  0  0  0  0  0  0  0
    8.9335   -5.3994    0.0000 C   0  0  0  0  0  0  0  0  0  0  0  0
    6.1929   -4.1792    0.0000 C   0  0  0  0  0  0  0  0  0  0  0  0
    7.4064   -3.2975    0.0000 O   0  0  0  0  0  0  0  0  0  0  0  0
    2.4138   -2.6807    0.0000 C   0  0  0  0  0  0  0  0  0  0  0  0
    3.8692   -3.0436    0.0000 C   0  0  0  0  0  0  0  0  0  0  0  0
    2.6225   -4.1661    0.0000 O   0  0  0  0  0  0  0  0  0  0  0  0
    1.1147   -3.4307    0.0000 C   0  0  0  0  0  0  0  0  0  0  0  0
   -0.3771   -3.5875    0.0000 C   0  0  0  0  0  0  0  0  0  0  0  0
   -0.5339   -5.0793    0.0000 C   0  0  0  0  0  0  0  0  0  0  0  0
   -1.8037   -3.1240    0.0000 C   0  0  0  0  0  0  0  0  0  0  0  0
   -2.9184   -2.1203    0.0000 N   0  0  0  0  0  0  0  0  0  0  0  0
   -3.5285   -0.7500    0.0000 C   0  0  0  0  0  0  0  0  0  0  0  0
   -4.9957   -1.0619    0.0000 C   0  0  0  0  0  0  0  0  0  0  0  0
   -3.5285    0.7500    0.0000 C   0  0  0  0  0  0  0  0  0  0  0  0
   -4.9957    1.0619    0.0000 O   0  0  0  0  0  0  0  0  0  0  0  0
   -2.9184    2.1203    0.0000 C   0  0  0  0  0  0  0  0  0  0  0  0
   -4.4175    2.1727    0.0000 C   0  0  0  0  0  0  0  0  0  0  0  0
   -3.4314    3.5299    0.0000 O   0  0  0  0  0  0  0  0  0  0  0  0
   -1.8037    3.1240    0.0000 C   0  0  0  0  0  0  0  0  0  0  0  0
   -2.5537    4.4231    0.0000 C   0  0  0  0  0  0  0  0  0  0  0  0
   -1.8037    5.7221    0.0000 C   0  0  0  0  0  0  0  0  0  0  0  0
   -0.3771    3.5875    0.0000 O   0  0  0  0  0  0  0  0  0  0  0  0
    1.1147    3.4307    0.0000 C   0  0  0  0  0  0  0  0  0  0  0  0
    1.5782    4.8573    0.0000 O   0  0  0  0  0  0  0  0  0  0  0  0
    2.4138    2.6807    0.0000 C   0  0  0  0  0  0  0  0  0  0  0  0
    3.0475    3.8728    0.0000 C   0  0  0  0  0  0  0  0  0  0  0  0
    6.1929    4.1792    0.0000 C   0  0  0  0  0  0  0  0  0  0  0  0
    6.3497    5.6710    0.0000 C   0  0  0  0  0  0  0  0  0  0  0  0
    7.7915    5.2575    0.0000 C   0  0  0  0  0  0  0  0  0  0  0  0
    7.0072    7.0192    0.0000 O   0  0  0  0  0  0  0  0  0  0  0  0
    8.5036    7.1238    0.0000 C   0  0  0  0  0  0  0  0  0  0  0  0
  1  2  1  0
  2  3  3  0
  3  4  1  0
  4  5  1  1
  4  6  1  0
  6  7  1  1
  6  8  1  0
  8  9  1  0
  9 10  1  6
 11 10  1  1
 11 12  1  0
 12 13  1  6
 12 14  1  0
 14 15  1  1
 16 15  1  1
 16 17  1  0
 17 18  1  0
 18 19  1  1
 18 20  1  0
 20 21  1  0
 21 22  1  1
 22 23  1  0
 22 24  1  0
 21 25  1  0
 25 26  1  6
 14 27  1  0
 27 28  1  1
 27 29  1  0
 27 30  1  0
 30 31  1  0
 31 32  1  1
 31 33  1  0
 33 34  1  0
 34 35  1  0
 35 36  1  6
 35 37  1  0
 37 38  1  1
 37 39  1  0
 39 40  1  1
 39 41  1  0
 39 42  1  0
 42 43  1  1
 43 44  1  0
 42 45  1  0
 45 46  1  0
 46 47  2  0
 46 48  1  0
 48 49  1  6
  9 50  1  0
 50 51  1  0
 51 52  1  1
 51 53  1  0
 53 54  1  0
 51  4  1  0
 48 11  1  0
 25 16  1  0
M  END
>  <ChEMBL_IDs>  (404) 
CHEMBL301879

>  <target_organism>  (404) 
None

>  <target_molecule_pref_name>  (404) 
nan

>  <# Known Targets>  (404) 
nan

>  <Known Targets>  (404) 
nan

>  <smiles>  (404) 
CC#C[C@@]1(O)[C@H](C)O[C@@H](O[C@H]2[C@H](C)[C@@H](O[C@@H]3O[C@H](C)C[C@H](N(C)C)[C@H]3O)[C@](C)(O)C[C@@H](C)CN[C@H](C)[C@@H](O)[C@](C)(O)[C@@H](CC)OC(=O)[C@@H]2C)C[C@@]1(C)OC

$$$$

     RDKit          2D

 54 56  0  0  0  0  0  0  0  0999 V2000
    7.2941    8.6367    0.0000 C   0  0  0  0  0  0  0  0  0  0  0  0
    6.2151    7.5947    0.0000 C   0  0  0  0  0  0  0  0  0  0  0  0
    5.1361    6.5527    0.0000 C   0  0  0  0  0  0  0  0  0  0  0  0
    4.2973    7.7962    0.0000 O   0  0  0  0  0  0  0  0  0  0  0  0
    3.7658    5.9426    0.0000 C   0  0  0  0  0  0  0  0  0  0  0  0
    2.5523    6.8242    0.0000 C   0  0  0  0  0  0  0  0  0  0  0  0
    3.6090    4.4508    0.0000 O   0  0  0  0  0  0  0  0  0  0  0  0
    4.8225    3.5691    0.0000 C   0  0  0  0  0  0  0  0  0  0  0  0
    4.6658    2.0773    0.0000 O   0  0  0  0  0  0  0  0  0  0  0  0
    3.2954    1.4672    0.0000 C   0  0  0  0  0  0  0  0  0  0  0  0
    3.6073    0.0000    0.0000 C   0  0  0  0  0  0  0  0  0  0  0  0
    5.1073    0.0000    0.0000 C   0  0  0  0  0  0  0  0  0  0  0  0
    3.2954   -1.4672    0.0000 C   0  0  0  0  0  0  0  0  0  0  0  0
    4.6658   -2.0773    0.0000 O   0  0  0  0  0  0  0  0  0  0  0  0
    4.8225   -3.5691    0.0000 C   0  0  0  0  0  0  0  0  0  0  0  0
    3.6090   -4.4508    0.0000 O   0  0  0  0  0  0  0  0  0  0  0  0
    3.7658   -5.9426    0.0000 C   0  0  0  0  0  0  0  0  0  0  0  0
    2.5523   -6.8242    0.0000 C   0  0  0  0  0  0  0  0  0  0  0  0
    5.1361   -6.5527    0.0000 C   0  0  0  0  0  0  0  0  0  0  0  0
    6.3497   -5.6710    0.0000 C   0  0  0  0  0  0  0  0  0  0  0  0
    7.7200   -6.2811    0.0000 N   0  0  0  0  0  0  0  0  0  0  0  0
    7.8768   -7.7729    0.0000 C   0  0  0  0  0  0  0  0  0  0  0  0
    8.9335   -5.3994    0.0000 C   0  0  0  0  0  0  0  0  0  0  0  0
    6.1929   -4.1792    0.0000 C   0  0  0  0  0  0  0  0  0  0  0  0
    7.4064   -3.2975    0.0000 O   0  0  0  0  0  0  0  0  0  0  0  0
    2.4138   -2.6807    0.0000 C   0  0  0  0  0  0  0  0  0  0  0  0
    3.8692   -3.0436    0.0000 C   0  0  0  0  0  0  0  0  0  0  0  0
    2.6225   -4.1661    0.0000 O   0  0  0  0  0  0  0  0  0  0  0  0
    1.1147   -3.4307    0.0000 C   0  0  0  0  0  0  0  0  0  0  0  0
   -0.3771   -3.5875    0.0000 C   0  0  0  0  0  0  0  0  0  0  0  0
   -0.5339   -5.0793    0.0000 C   0  0  0  0  0  0  0  0  0  0  0  0
   -1.8037   -3.1240    0.0000 C   0  0  0  0  0  0  0  0  0  0  0  0
   -2.9184   -2.1203    0.0000 N   0  0  0  0  0  0  0  0  0  0  0  0
   -4.1319   -3.0020    0.0000 C   0  0  0  0  0  0  0  0  0  0  0  0
   -3.5285   -0.7500    0.0000 C   0  0  0  0  0  0  0  0  0  0  0  0
   -4.9957   -1.0619    0.0000 C   0  0  0  0  0  0  0  0  0  0  0  0
   -3.5285    0.7500    0.0000 C   0  0  0  0  0  0  0  0  0  0  0  0
   -4.9957    1.0619    0.0000 O   0  0  0  0  0  0  0  0  0  0  0  0
   -2.9184    2.1203    0.0000 C   0  0  0  0  0  0  0  0  0  0  0  0
   -4.4175    2.1727    0.0000 C   0  0  0  0  0  0  0  0  0  0  0  0
   -3.4314    3.5299    0.0000 O   0  0  0  0  0  0  0  0  0  0  0  0
   -1.8037    3.1240    0.0000 C   0  0  0  0  0  0  0  0  0  0  0  0
   -2.5537    4.4231    0.0000 C   0  0  0  0  0  0  0  0  0  0  0  0
   -1.8037    5.7221    0.0000 C   0  0  0  0  0  0  0  0  0  0  0  0
   -0.3771    3.5875    0.0000 O   0  0  0  0  0  0  0  0  0  0  0  0
    1.1147    3.4307    0.0000 C   0  0  0  0  0  0  0  0  0  0  0  0
    1.5782    4.8573    0.0000 O   0  0  0  0  0  0  0  0  0  0  0  0
    2.4138    2.6807    0.0000 C   0  0  0  0  0  0  0  0  0  0  0  0
    3.0475    3.8728    0.0000 C   0  0  0  0  0  0  0  0  0  0  0  0
    6.1929    4.1792    0.0000 C   0  0  0  0  0  0  0  0  0  0  0  0
    6.3497    5.6710    0.0000 C   0  0  0  0  0  0  0  0  0  0  0  0
    7.7915    5.2575    0.0000 C   0  0  0  0  0  0  0  0  0  0  0  0
    7.0072    7.0192    0.0000 O   0  0  0  0  0  0  0  0  0  0  0  0
    8.5036    7.1238    0.0000 C   0  0  0  0  0  0  0  0  0  0  0  0
  1  2  3  0
  2  3  1  0
  3  4  1  1
  3  5  1  0
  5  6  1  1
  5  7  1  0
  7  8  1  0
  8  9  1  6
 10  9  1  1
 10 11  1  0
 11 12  1  6
 11 13  1  0
 13 14  1  1
 15 14  1  1
 15 16  1  0
 16 17  1  0
 17 18  1  1
 17 19  1  0
 19 20  1  0
 20 21  1  1
 21 22  1  0
 21 23  1  0
 20 24  1  0
 24 25  1  6
 13 26  1  0
 26 27  1  1
 26 28  1  0
 26 29  1  0
 29 30  1  0
 30 31  1  1
 30 32  1  0
 32 33  1  0
 33 34  1  0
 33 35  1  0
 35 36  1  6
 35 37  1  0
 37 38  1  1
 37 39  1  0
 39 40  1  1
 39 41  1  0
 39 42  1  0
 42 43  1  1
 43 44  1  0
 42 45  1  0
 45 46  1  0
 46 47  2  0
 46 48  1  0
 48 49  1  6
  8 50  1  0
 50 51  1  0
 51 52  1  1
 51 53  1  0
 53 54  1  0
 51  3  1  0
 48 10  1  0
 24 15  1  0
M  END
>  <ChEMBL_IDs>  (405) 
CHEMBL292174

>  <target_organism>  (405) 
None

>  <target_molecule_pref_name>  (405) 
nan

>  <# Known Targets>  (405) 
nan

>  <Known Targets>  (405) 
nan

>  <smiles>  (405) 
C#C[C@@]1(O)[C@H](C)O[C@@H](O[C@H]2[C@H](C)[C@@H](O[C@@H]3O[C@H](C)C[C@H](N(C)C)[C@H]3O)[C@](C)(O)C[C@@H](C)CN(C)[C@H](C)[C@@H](O)[C@](C)(O)[C@@H](CC)OC(=O)[C@@H]2C)C[C@@]1(C)OC

$$$$

     RDKit          2D

 55 57  0  0  0  0  0  0  0  0999 V2000
    8.4767   -0.1522    0.0000 C   0  0  0  0  0  0  0  0  0  0  0  0
    7.4426   -1.0200    0.0000 C   0  0  0  0  0  0  0  0  0  0  0  0
    6.1990   -0.1812    0.0000 C   0  0  0  0  0  0  0  0  0  0  0  0
    4.8509   -0.8388    0.0000 O   0  0  0  0  0  0  0  0  0  0  0  0
    3.6073    0.0000    0.0000 C   0  0  0  0  0  0  0  0  0  0  0  0
    4.7393    0.9841    0.0000 C   0  0  0  0  0  0  0  0  0  0  0  0
    3.2954    1.4672    0.0000 C   0  0  0  0  0  0  0  0  0  0  0  0
    2.4138    2.6807    0.0000 C   0  0  0  0  0  0  0  0  0  0  0  0
    3.4175    3.7955    0.0000 C   0  0  0  0  0  0  0  0  0  0  0  0
    1.1147    3.4307    0.0000 C   0  0  0  0  0  0  0  0  0  0  0  0
    1.5782    4.8573    0.0000 O   0  0  0  0  0  0  0  0  0  0  0  0
   -0.3771    3.5875    0.0000 N   0  0  0  0  0  0  0  0  0  0  0  0
   -1.8037    3.1240    0.0000 C   0  0  0  0  0  0  0  0  0  0  0  0
   -2.5537    4.4231    0.0000 C   0  0  0  0  0  0  0  0  0  0  0  0
   -2.9184    2.1203    0.0000 C   0  0  0  0  0  0  0  0  0  0  0  0
   -4.1319    3.0020    0.0000 O   0  0  0  0  0  0  0  0  0  0  0  0
   -3.5285    0.7500    0.0000 C   0  0  0  0  0  0  0  0  0  0  0  0
   -4.9192    0.1881    0.0000 C   0  0  0  0  0  0  0  0  0  0  0  0
   -4.5705    1.8290    0.0000 O   0  0  0  0  0  0  0  0  0  0  0  0
   -3.5285   -0.7500    0.0000 C   0  0  0  0  0  0  0  0  0  0  0  0
   -4.9957   -1.0619    0.0000 C   0  0  0  0  0  0  0  0  0  0  0  0
   -5.9994    0.0528    0.0000 C   0  0  0  0  0  0  0  0  0  0  0  0
   -2.9184   -2.1203    0.0000 O   0  0  0  0  0  0  0  0  0  0  0  0
   -1.8037   -3.1240    0.0000 C   0  0  0  0  0  0  0  0  0  0  0  0
   -2.5537   -4.4231    0.0000 O   0  0  0  0  0  0  0  0  0  0  0  0
   -0.3771   -3.5875    0.0000 C   0  0  0  0  0  0  0  0  0  0  0  0
   -0.8389   -4.8561    0.0000 C   0  0  0  0  0  0  0  0  0  0  0  0
    1.1147   -3.4307    0.0000 C   0  0  0  0  0  0  0  0  0  0  0  0
    1.5782   -4.8573    0.0000 O   0  0  0  0  0  0  0  0  0  0  0  0
    0.5745   -5.9720    0.0000 C   0  0  0  0  0  0  0  0  0  0  0  0
    1.0381   -7.3986    0.0000 C   0  0  0  0  0  0  0  0  0  0  0  0
    0.0344   -8.5134    0.0000 C   0  0  0  0  0  0  0  0  0  0  0  0
   -0.5275   -9.9041    0.0000 C   0  0  0  0  0  0  0  0  0  0  0  0
    1.3064   -9.3082    0.0000 O   0  0  0  0  0  0  0  0  0  0  0  0
    1.2541  -10.8073    0.0000 C   0  0  0  0  0  0  0  0  0  0  0  0
   -1.4328   -8.2015    0.0000 C   0  0  0  0  0  0  0  0  0  0  0  0
   -2.4365   -9.3162    0.0000 O   0  0  0  0  0  0  0  0  0  0  0  0
   -1.8964   -6.7749    0.0000 C   0  0  0  0  0  0  0  0  0  0  0  0
   -3.3636   -6.4630    0.0000 C   0  0  0  0  0  0  0  0  0  0  0  0
   -0.8927   -5.6602    0.0000 O   0  0  0  0  0  0  0  0  0  0  0  0
    2.4138   -2.6807    0.0000 C   0  0  0  0  0  0  0  0  0  0  0  0
    3.4175   -3.7955    0.0000 C   0  0  0  0  0  0  0  0  0  0  0  0
    3.2954   -1.4672    0.0000 C   0  0  0  0  0  0  0  0  0  0  0  0
    4.6658   -2.0773    0.0000 O   0  0  0  0  0  0  0  0  0  0  0  0
    5.8793   -1.1956    0.0000 C   0  0  0  0  0  0  0  0  0  0  0  0
    7.2496   -1.8058    0.0000 O   0  0  0  0  0  0  0  0  0  0  0  0
    8.4631   -0.9241    0.0000 C   0  0  0  0  0  0  0  0  0  0  0  0
    9.8334   -1.5342    0.0000 C   0  0  0  0  0  0  0  0  0  0  0  0
    8.3063    0.5677    0.0000 C   0  0  0  0  0  0  0  0  0  0  0  0
    6.9360    1.1778    0.0000 C   0  0  0  0  0  0  0  0  0  0  0  0
    6.7792    2.6696    0.0000 N   0  0  0  0  0  0  0  0  0  0  0  0
    7.9927    3.5513    0.0000 C   0  0  0  0  0  0  0  0  0  0  0  0
    5.4089    3.2797    0.0000 C   0  0  0  0  0  0  0  0  0  0  0  0
    5.7225    0.2961    0.0000 C   0  0  0  0  0  0  0  0  0  0  0  0
    4.4368    1.0687    0.0000 O   0  0  0  0  0  0  0  0  0  0  0  0
  1  2  2  0
  2  3  1  0
  3  4  1  0
  4  5  1  0
  5  6  1  6
  5  7  1  0
  7  8  1  0
  8  9  1  6
  8 10  1  0
 10 11  2  0
 10 12  1  0
 12 13  1  0
 13 14  1  1
 13 15  1  0
 15 16  1  1
 15 17  1  0
 17 18  1  1
 17 19  1  0
 17 20  1  0
 20 21  1  6
 21 22  1  0
 20 23  1  0
 23 24  1  0
 24 25  2  0
 24 26  1  0
 26 27  1  1
 26 28  1  0
 28 29  1  6
 30 29  1  6
 30 31  1  0
 31 32  1  0
 32 33  1  6
 32 34  1  0
 34 35  1  0
 32 36  1  0
 36 37  1  1
 36 38  1  0
 38 39  1  6
 38 40  1  0
 28 41  1  0
 41 42  1  1
 41 43  1  0
 43 44  1  6
 45 44  1  1
 45 46  1  0
 46 47  1  0
 47 48  1  1
 47 49  1  0
 49 50  1  0
 50 51  1  1
 51 52  1  0
 51 53  1  0
 50 54  1  0
 54 55  1  6
 43  5  1  0
 54 45  1  0
 40 30  1  0
M  END
>  <ChEMBL_IDs>  (406) 
CHEMBL1288434

>  <target_organism>  (406) 
nan

>  <target_molecule_pref_name>  (406) 
nan

>  <# Known Targets>  (406) 
nan

>  <Known Targets>  (406) 
nan

>  <smiles>  (406) 
C=CCO[C@]1(C)C[C@@H](C)C(=O)N[C@H](C)[C@H](O)[C@@](C)(O)[C@@H](CC)OC(=O)[C@H](C)[C@@H](O[C@@H]2C[C@@](C)(OC)[C@@H](O)[C@H](C)O2)[C@H](C)[C@H]1O[C@@H]1O[C@H](C)C[C@H](N(C)C)[C@H]1O

$$$$

     RDKit          2D

 55 57  0  0  0  0  0  0  0  0999 V2000
    8.4767   -0.1522    0.0000 C   0  0  0  0  0  0  0  0  0  0  0  0
    7.4426   -1.0200    0.0000 C   0  0  0  0  0  0  0  0  0  0  0  0
    6.1990   -0.1812    0.0000 C   0  0  0  0  0  0  0  0  0  0  0  0
    4.8509   -0.8388    0.0000 O   0  0  0  0  0  0  0  0  0  0  0  0
    3.6073    0.0000    0.0000 C   0  0  0  0  0  0  0  0  0  0  0  0
    4.7393    0.9841    0.0000 C   0  0  0  0  0  0  0  0  0  0  0  0
    3.2954    1.4672    0.0000 C   0  0  0  0  0  0  0  0  0  0  0  0
    2.4138    2.6807    0.0000 C   0  0  0  0  0  0  0  0  0  0  0  0
    3.4175    3.7955    0.0000 C   0  0  0  0  0  0  0  0  0  0  0  0
    1.1147    3.4307    0.0000 N   0  0  0  0  0  0  0  0  0  0  0  0
   -0.3771    3.5875    0.0000 C   0  0  0  0  0  0  0  0  0  0  0  0
   -0.5339    5.0793    0.0000 O   0  0  0  0  0  0  0  0  0  0  0  0
   -1.8037    3.1240    0.0000 C   0  0  0  0  0  0  0  0  0  0  0  0
   -2.5537    4.4231    0.0000 C   0  0  0  0  0  0  0  0  0  0  0  0
   -2.9184    2.1203    0.0000 C   0  0  0  0  0  0  0  0  0  0  0  0
   -4.1319    3.0020    0.0000 O   0  0  0  0  0  0  0  0  0  0  0  0
   -3.5285    0.7500    0.0000 C   0  0  0  0  0  0  0  0  0  0  0  0
   -4.9192    0.1881    0.0000 C   0  0  0  0  0  0  0  0  0  0  0  0
   -4.5705    1.8290    0.0000 O   0  0  0  0  0  0  0  0  0  0  0  0
   -3.5285   -0.7500    0.0000 C   0  0  0  0  0  0  0  0  0  0  0  0
   -4.9957   -1.0619    0.0000 C   0  0  0  0  0  0  0  0  0  0  0  0
   -5.9994    0.0528    0.0000 C   0  0  0  0  0  0  0  0  0  0  0  0
   -2.9184   -2.1203    0.0000 O   0  0  0  0  0  0  0  0  0  0  0  0
   -1.8037   -3.1240    0.0000 C   0  0  0  0  0  0  0  0  0  0  0  0
   -2.5537   -4.4231    0.0000 O   0  0  0  0  0  0  0  0  0  0  0  0
   -0.3771   -3.5875    0.0000 C   0  0  0  0  0  0  0  0  0  0  0  0
   -0.8389   -4.8561    0.0000 C   0  0  0  0  0  0  0  0  0  0  0  0
    1.1147   -3.4307    0.0000 C   0  0  0  0  0  0  0  0  0  0  0  0
    1.5782   -4.8573    0.0000 O   0  0  0  0  0  0  0  0  0  0  0  0
    0.5745   -5.9720    0.0000 C   0  0  0  0  0  0  0  0  0  0  0  0
    1.0381   -7.3986    0.0000 C   0  0  0  0  0  0  0  0  0  0  0  0
    0.0344   -8.5134    0.0000 C   0  0  0  0  0  0  0  0  0  0  0  0
   -0.5275   -9.9041    0.0000 C   0  0  0  0  0  0  0  0  0  0  0  0
    1.3064   -9.3082    0.0000 O   0  0  0  0  0  0  0  0  0  0  0  0
    1.2541  -10.8073    0.0000 C   0  0  0  0  0  0  0  0  0  0  0  0
   -1.4328   -8.2015    0.0000 C   0  0  0  0  0  0  0  0  0  0  0  0
   -2.4365   -9.3162    0.0000 O   0  0  0  0  0  0  0  0  0  0  0  0
   -1.8964   -6.7749    0.0000 C   0  0  0  0  0  0  0  0  0  0  0  0
   -3.3636   -6.4630    0.0000 C   0  0  0  0  0  0  0  0  0  0  0  0
   -0.8927   -5.6602    0.0000 O   0  0  0  0  0  0  0  0  0  0  0  0
    2.4138   -2.6807    0.0000 C   0  0  0  0  0  0  0  0  0  0  0  0
    3.4175   -3.7955    0.0000 C   0  0  0  0  0  0  0  0  0  0  0  0
    3.2954   -1.4672    0.0000 C   0  0  0  0  0  0  0  0  0  0  0  0
    4.6658   -2.0773    0.0000 O   0  0  0  0  0  0  0  0  0  0  0  0
    5.8793   -1.1956    0.0000 C   0  0  0  0  0  0  0  0  0  0  0  0
    7.2496   -1.8058    0.0000 O   0  0  0  0  0  0  0  0  0  0  0  0
    8.4631   -0.9241    0.0000 C   0  0  0  0  0  0  0  0  0  0  0  0
    9.8334   -1.5342    0.0000 C   0  0  0  0  0  0  0  0  0  0  0  0
    8.3063    0.5677    0.0000 C   0  0  0  0  0  0  0  0  0  0  0  0
    6.9360    1.1778    0.0000 C   0  0  0  0  0  0  0  0  0  0  0  0
    6.7792    2.6696    0.0000 N   0  0  0  0  0  0  0  0  0  0  0  0
    7.9927    3.5513    0.0000 C   0  0  0  0  0  0  0  0  0  0  0  0
    5.4089    3.2797    0.0000 C   0  0  0  0  0  0  0  0  0  0  0  0
    5.7225    0.2961    0.0000 C   0  0  0  0  0  0  0  0  0  0  0  0
    4.4368    1.0687    0.0000 O   0  0  0  0  0  0  0  0  0  0  0  0
  1  2  2  0
  2  3  1  0
  3  4  1  0
  4  5  1  0
  5  6  1  6
  5  7  1  0
  7  8  1  0
  8  9  1  6
  8 10  1  0
 10 11  1  0
 11 12  2  0
 11 13  1  0
 13 14  1  1
 13 15  1  0
 15 16  1  1
 15 17  1  0
 17 18  1  1
 17 19  1  0
 17 20  1  0
 20 21  1  6
 21 22  1  0
 20 23  1  0
 23 24  1  0
 24 25  2  0
 24 26  1  0
 26 27  1  1
 26 28  1  0
 28 29  1  6
 30 29  1  6
 30 31  1  0
 31 32  1  0
 32 33  1  6
 32 34  1  0
 34 35  1  0
 32 36  1  0
 36 37  1  1
 36 38  1  0
 38 39  1  6
 38 40  1  0
 28 41  1  0
 41 42  1  1
 41 43  1  0
 43 44  1  6
 45 44  1  1
 45 46  1  0
 46 47  1  0
 47 48  1  1
 47 49  1  0
 49 50  1  0
 50 51  1  1
 51 52  1  0
 51 53  1  0
 50 54  1  0
 54 55  1  6
 43  5  1  0
 54 45  1  0
 40 30  1  0
M  END
>  <ChEMBL_IDs>  (407) 
CHEMBL1288431

>  <target_organism>  (407) 
nan

>  <target_molecule_pref_name>  (407) 
nan

>  <# Known Targets>  (407) 
nan

>  <Known Targets>  (407) 
nan

>  <smiles>  (407) 
C=CCO[C@]1(C)C[C@@H](C)NC(=O)[C@H](C)[C@H](O)[C@@](C)(O)[C@@H](CC)OC(=O)[C@H](C)[C@@H](O[C@@H]2C[C@@](C)(OC)[C@@H](O)[C@H](C)O2)[C@H](C)[C@H]1O[C@@H]1O[C@H](C)C[C@H](N(C)C)[C@H]1O

$$$$

     RDKit          2D

 56 58  0  0  0  0  0  0  0  0999 V2000
    5.6205   -1.2990    0.0000 C   0  0  0  0  0  0  0  0  0  0  0  0
    4.8705    0.0000    0.0000 C   0  0  0  0  0  0  0  0  0  0  0  0
    3.3705    0.0000    0.0000 C   0  0  0  0  0  0  0  0  0  0  0  0
    3.0367   -1.4624    0.0000 O   0  0  0  0  0  0  0  0  0  0  0  0
    2.1015   -2.6351    0.0000 C   0  0  0  0  0  0  0  0  0  0  0  0
    3.0367   -3.8079    0.0000 O   0  0  0  0  0  0  0  0  0  0  0  0
    0.7500   -3.2860    0.0000 C   0  0  0  0  0  0  0  0  0  0  0  0
    1.3600   -4.4903    0.0000 C   0  0  0  0  0  0  0  0  0  0  0  0
   -0.7500   -3.2860    0.0000 C   0  0  0  0  0  0  0  0  0  0  0  0
   -1.0838   -4.7484    0.0000 O   0  0  0  0  0  0  0  0  0  0  0  0
    0.0158   -5.7686    0.0000 C   0  0  0  0  0  0  0  0  0  0  0  0
   -0.3180   -7.2310    0.0000 C   0  0  0  0  0  0  0  0  0  0  0  0
    0.7816   -8.2513    0.0000 C   0  0  0  0  0  0  0  0  0  0  0  0
    1.4659   -9.5861    0.0000 C   0  0  0  0  0  0  0  0  0  0  0  0
   -0.4141   -9.1570    0.0000 O   0  0  0  0  0  0  0  0  0  0  0  0
   -0.2276  -10.6453    0.0000 C   0  0  0  0  0  0  0  0  0  0  0  0
    2.2150   -7.8091    0.0000 C   0  0  0  0  0  0  0  0  0  0  0  0
    3.3145   -8.8294    0.0000 O   0  0  0  0  0  0  0  0  0  0  0  0
    2.5487   -6.3467    0.0000 C   0  0  0  0  0  0  0  0  0  0  0  0
    3.9821   -5.9046    0.0000 C   0  0  0  0  0  0  0  0  0  0  0  0
    1.4492   -5.3265    0.0000 O   0  0  0  0  0  0  0  0  0  0  0  0
   -2.1015   -2.6351    0.0000 C   0  0  0  0  0  0  0  0  0  0  0  0
   -3.0367   -3.8079    0.0000 C   0  0  0  0  0  0  0  0  0  0  0  0
   -3.0367   -1.4624    0.0000 C   0  0  0  0  0  0  0  0  0  0  0  0
   -4.3881   -2.1132    0.0000 O   0  0  0  0  0  0  0  0  0  0  0  0
   -5.6275   -1.2682    0.0000 C   0  0  0  0  0  0  0  0  0  0  0  0
   -5.5154    0.2276    0.0000 O   0  0  0  0  0  0  0  0  0  0  0  0
   -6.7548    1.0725    0.0000 C   0  0  0  0  0  0  0  0  0  0  0  0
   -6.2841    2.4968    0.0000 C   0  0  0  0  0  0  0  0  0  0  0  0
   -8.1062    0.4217    0.0000 C   0  0  0  0  0  0  0  0  0  0  0  0
   -8.2183   -1.0741    0.0000 C   0  0  0  0  0  0  0  0  0  0  0  0
   -9.5698   -1.7249    0.0000 N   0  0  0  0  0  0  0  0  0  0  0  0
  -10.8091   -0.8799    0.0000 C   0  0  0  0  0  0  0  0  0  0  0  0
   -9.6819   -3.2207    0.0000 C   0  0  0  0  0  0  0  0  0  0  0  0
   -6.9790   -1.9191    0.0000 C   0  0  0  0  0  0  0  0  0  0  0  0
   -7.0910   -3.4149    0.0000 O   0  0  0  0  0  0  0  0  0  0  0  0
   -3.3705    0.0000    0.0000 C   0  0  0  0  0  0  0  0  0  0  0  0
   -4.6098   -0.8450    0.0000 C   0  0  0  0  0  0  0  0  0  0  0  0
   -4.6098    0.8450    0.0000 O   0  0  0  0  0  0  0  0  0  0  0  0
   -5.9613    0.1942    0.0000 C   0  0  0  0  0  0  0  0  0  0  0  0
   -7.2006    1.0391    0.0000 C   0  0  0  0  0  0  0  0  0  0  0  0
   -7.0885    2.5349    0.0000 N   0  0  0  0  0  0  0  0  0  0  0  0
   -8.3279    3.3799    0.0000 O   0  0  0  0  0  0  0  0  0  0  0  0
   -8.2158    4.8757    0.0000 C   0  0  0  0  0  0  0  0  0  0  0  0
   -3.0367    1.4624    0.0000 C   0  0  0  0  0  0  0  0  0  0  0  0
   -2.1015    2.6351    0.0000 C   0  0  0  0  0  0  0  0  0  0  0  0
   -3.0367    3.8079    0.0000 C   0  0  0  0  0  0  0  0  0  0  0  0
   -0.7500    3.2860    0.0000 C   0  0  0  0  0  0  0  0  0  0  0  0
   -1.0838    4.7484    0.0000 O   0  0  0  0  0  0  0  0  0  0  0  0
    0.7500    3.2860    0.0000 C   0  0  0  0  0  0  0  0  0  0  0  0
    1.0838    4.7484    0.0000 C   0  0  0  0  0  0  0  0  0  0  0  0
    2.1015    2.6351    0.0000 C   0  0  0  0  0  0  0  0  0  0  0  0
    3.0367    3.8079    0.0000 O   0  0  0  0  0  0  0  0  0  0  0  0
    3.0367    1.4624    0.0000 C   0  0  0  0  0  0  0  0  0  0  0  0
    3.7867    2.7614    0.0000 C   0  0  0  0  0  0  0  0  0  0  0  0
    4.5199    1.2388    0.0000 O   0  0  0  0  0  0  0  0  0  0  0  0
  1  2  1  0
  3  2  1  1
  3  4  1  0
  4  5  1  0
  5  6  2  0
  5  7  1  0
  7  8  1  6
  7  9  1  0
  9 10  1  1
 11 10  1  6
 11 12  1  0
 12 13  1  0
 13 14  1  1
 13 15  1  0
 15 16  1  0
 13 17  1  0
 17 18  1  6
 17 19  1  0
 19 20  1  1
 19 21  1  0
  9 22  1  0
 22 23  1  6
 22 24  1  0
 24 25  1  1
 26 25  1  1
 26 27  1  0
 27 28  1  0
 28 29  1  1
 28 30  1  0
 30 31  1  0
 31 32  1  1
 32 33  1  0
 32 34  1  0
 31 35  1  0
 35 36  1  6
 24 37  1  0
 37 38  1  6
 37 39  1  0
 39 40  1  0
 40 41  1  0
 41 42  2  0
 42 43  1  0
 43 44  1  0
 37 45  1  0
 45 46  1  0
 46 47  1  1
 46 48  1  0
 48 49  2  0
 48 50  1  0
 50 51  1  6
 50 52  1  0
 52 53  1  1
 52 54  1  0
 54 55  1  1
 54 56  1  0
 54  3  1  0
 21 11  1  0
 35 26  1  0
M  END
>  <ChEMBL_IDs>  (408) 
CHEMBL355317

>  <target_organism>  (408) 
Hepatitis C virus,None

>  <target_molecule_pref_name>  (408) 
nan

>  <# Known Targets>  (408) 
nan

>  <Known Targets>  (408) 
nan

>  <smiles>  (408) 
CC[C@H]1OC(=O)[C@H](C)[C@@H](O[C@H]2C[C@@](C)(OC)[C@@H](O)[C@H](C)O2)[C@H](C)[C@@H](O[C@@H]2O[C@H](C)C[C@H](N(C)C)[C@H]2O)[C@@](C)(OC/C=N/OC)C[C@@H](C)C(=O)[C@H](C)[C@@H](O)[C@]1(C)O

$$$$

     RDKit          2D

 56 58  0  0  0  0  0  0  0  0999 V2000
    5.6205   -1.2990    0.0000 C   0  0  0  0  0  0  0  0  0  0  0  0
    4.8705    0.0000    0.0000 C   0  0  0  0  0  0  0  0  0  0  0  0
    3.3705    0.0000    0.0000 C   0  0  0  0  0  0  0  0  0  0  0  0
    3.0367   -1.4624    0.0000 O   0  0  0  0  0  0  0  0  0  0  0  0
    2.1015   -2.6351    0.0000 C   0  0  0  0  0  0  0  0  0  0  0  0
    3.0367   -3.8079    0.0000 O   0  0  0  0  0  0  0  0  0  0  0  0
    0.7500   -3.2860    0.0000 C   0  0  0  0  0  0  0  0  0  0  0  0
    1.3600   -4.4903    0.0000 C   0  0  0  0  0  0  0  0  0  0  0  0
   -0.7500   -3.2860    0.0000 C   0  0  0  0  0  0  0  0  0  0  0  0
   -1.0838   -4.7484    0.0000 O   0  0  0  0  0  0  0  0  0  0  0  0
    0.0158   -5.7686    0.0000 C   0  0  0  0  0  0  0  0  0  0  0  0
   -0.3180   -7.2310    0.0000 C   0  0  0  0  0  0  0  0  0  0  0  0
    0.7816   -8.2513    0.0000 C   0  0  0  0  0  0  0  0  0  0  0  0
    1.4659   -9.5861    0.0000 C   0  0  0  0  0  0  0  0  0  0  0  0
   -0.4141   -9.1570    0.0000 O   0  0  0  0  0  0  0  0  0  0  0  0
   -0.2276  -10.6453    0.0000 C   0  0  0  0  0  0  0  0  0  0  0  0
    2.2150   -7.8091    0.0000 C   0  0  0  0  0  0  0  0  0  0  0  0
    3.3145   -8.8294    0.0000 O   0  0  0  0  0  0  0  0  0  0  0  0
    4.7479   -8.3873    0.0000 C   0  0  0  0  0  0  0  0  0  0  0  0
    5.8475   -9.4075    0.0000 C   0  0  0  0  0  0  0  0  0  0  0  0
    5.0817   -6.9249    0.0000 O   0  0  0  0  0  0  0  0  0  0  0  0
    2.5487   -6.3467    0.0000 C   0  0  0  0  0  0  0  0  0  0  0  0
    3.9821   -5.9046    0.0000 C   0  0  0  0  0  0  0  0  0  0  0  0
    1.4492   -5.3265    0.0000 O   0  0  0  0  0  0  0  0  0  0  0  0
   -2.1015   -2.6351    0.0000 C   0  0  0  0  0  0  0  0  0  0  0  0
   -3.0367   -3.8079    0.0000 C   0  0  0  0  0  0  0  0  0  0  0  0
   -3.0367   -1.4624    0.0000 C   0  0  0  0  0  0  0  0  0  0  0  0
   -4.3881   -2.1132    0.0000 O   0  0  0  0  0  0  0  0  0  0  0  0
   -5.6275   -1.2682    0.0000 C   0  0  0  0  0  0  0  0  0  0  0  0
   -5.5154    0.2276    0.0000 O   0  0  0  0  0  0  0  0  0  0  0  0
   -6.7548    1.0725    0.0000 C   0  0  0  0  0  0  0  0  0  0  0  0
   -6.6427    2.5684    0.0000 C   0  0  0  0  0  0  0  0  0  0  0  0
   -8.1062    0.4217    0.0000 C   0  0  0  0  0  0  0  0  0  0  0  0
   -8.2183   -1.0741    0.0000 C   0  0  0  0  0  0  0  0  0  0  0  0
   -9.5698   -1.7249    0.0000 N   0  0  0  0  0  0  0  0  0  0  0  0
  -10.8091   -0.8799    0.0000 C   0  0  0  0  0  0  0  0  0  0  0  0
   -9.6819   -3.2207    0.0000 C   0  0  0  0  0  0  0  0  0  0  0  0
   -6.9790   -1.9191    0.0000 C   0  0  0  0  0  0  0  0  0  0  0  0
   -7.0910   -3.4149    0.0000 O   0  0  0  0  0  0  0  0  0  0  0  0
   -3.3705    0.0000    0.0000 C   0  0  0  0  0  0  0  0  0  0  0  0
   -4.6098   -0.8450    0.0000 C   0  0  0  0  0  0  0  0  0  0  0  0
   -4.6098    0.8450    0.0000 O   0  0  0  0  0  0  0  0  0  0  0  0
   -3.0367    1.4624    0.0000 C   0  0  0  0  0  0  0  0  0  0  0  0
   -2.1015    2.6351    0.0000 C   0  0  0  0  0  0  0  0  0  0  0  0
   -3.0367    3.8079    0.0000 C   0  0  0  0  0  0  0  0  0  0  0  0
   -0.7500    3.2860    0.0000 C   0  0  0  0  0  0  0  0  0  0  0  0
   -1.0838    4.7484    0.0000 N   0  0  0  0  0  0  0  0  0  0  0  0
   -2.5171    5.1905    0.0000 O   0  0  0  0  0  0  0  0  0  0  0  0
   -2.8509    6.6529    0.0000 C   0  0  0  0  0  0  0  0  0  0  0  0
    0.7500    3.2860    0.0000 C   0  0  0  0  0  0  0  0  0  0  0  0
    1.0838    4.7484    0.0000 C   0  0  0  0  0  0  0  0  0  0  0  0
    2.1015    2.6351    0.0000 C   0  0  0  0  0  0  0  0  0  0  0  0
    3.0367    3.8079    0.0000 O   0  0  0  0  0  0  0  0  0  0  0  0
    3.0367    1.4624    0.0000 C   0  0  0  0  0  0  0  0  0  0  0  0
    3.7867    2.7614    0.0000 C   0  0  0  0  0  0  0  0  0  0  0  0
    4.5199    1.2388    0.0000 O   0  0  0  0  0  0  0  0  0  0  0  0
  1  2  1  0
  3  2  1  1
  3  4  1  0
  4  5  1  0
  5  6  2  0
  5  7  1  0
  7  8  1  6
  7  9  1  0
  9 10  1  1
 11 10  1  6
 11 12  1  0
 12 13  1  0
 13 14  1  1
 13 15  1  0
 15 16  1  0
 13 17  1  0
 17 18  1  6
 18 19  1  0
 19 20  1  0
 19 21  2  0
 17 22  1  0
 22 23  1  1
 22 24  1  0
  9 25  1  0
 25 26  1  6
 25 27  1  0
 27 28  1  1
 29 28  1  1
 29 30  1  0
 30 31  1  0
 31 32  1  1
 31 33  1  0
 33 34  1  0
 34 35  1  1
 35 36  1  0
 35 37  1  0
 34 38  1  0
 38 39  1  6
 27 40  1  0
 40 41  1  1
 40 42  1  0
 40 43  1  0
 43 44  1  0
 44 45  1  1
 44 46  1  0
 46 47  2  0
 47 48  1  0
 48 49  1  0
 46 50  1  0
 50 51  1  6
 50 52  1  0
 52 53  1  1
 52 54  1  0
 54 55  1  1
 54 56  1  0
 54  3  1  0
 24 11  1  0
 38 29  1  0
M  END
>  <ChEMBL_IDs>  (409) 
nan

>  <target_organism>  (409) 
nan

>  <target_molecule_pref_name>  (409) 
nan

>  <# Known Targets>  (409) 
nan

>  <Known Targets>  (409) 
nan

>  <smiles>  (409) 
CC[C@H]1OC(=O)[C@H](C)[C@@H](O[C@H]2C[C@@](C)(OC)[C@@H](OC(C)=O)[C@H](C)O2)[C@H](C)[C@@H](O[C@@H]2O[C@H](C)C[C@H](N(C)C)[C@H]2O)[C@](C)(O)C[C@@H](C)/C(=N\OC)[C@H](C)[C@@H](O)[C@]1(C)O

$$$$

     RDKit          2D

 56 58  0  0  0  0  0  0  0  0999 V2000
    5.6205   -1.2990    0.0000 C   0  0  0  0  0  0  0  0  0  0  0  0
    4.8705    0.0000    0.0000 C   0  0  0  0  0  0  0  0  0  0  0  0
    3.3705    0.0000    0.0000 C   0  0  0  0  0  0  0  0  0  0  0  0
    3.0367   -1.4624    0.0000 O   0  0  0  0  0  0  0  0  0  0  0  0
    2.1015   -2.6351    0.0000 C   0  0  0  0  0  0  0  0  0  0  0  0
    3.0367   -3.8079    0.0000 O   0  0  0  0  0  0  0  0  0  0  0  0
    0.7500   -3.2860    0.0000 C   0  0  0  0  0  0  0  0  0  0  0  0
    1.3600   -4.4903    0.0000 C   0  0  0  0  0  0  0  0  0  0  0  0
   -0.7500   -3.2860    0.0000 C   0  0  0  0  0  0  0  0  0  0  0  0
   -1.0838   -4.7484    0.0000 O   0  0  0  0  0  0  0  0  0  0  0  0
    0.0158   -5.7686    0.0000 C   0  0  0  0  0  0  0  0  0  0  0  0
   -0.3180   -7.2310    0.0000 C   0  0  0  0  0  0  0  0  0  0  0  0
    0.7816   -8.2513    0.0000 C   0  0  0  0  0  0  0  0  0  0  0  0
    1.4659   -9.5861    0.0000 C   0  0  0  0  0  0  0  0  0  0  0  0
   -0.4141   -9.1570    0.0000 O   0  0  0  0  0  0  0  0  0  0  0  0
   -0.2276  -10.6453    0.0000 C   0  0  0  0  0  0  0  0  0  0  0  0
    2.2150   -7.8091    0.0000 C   0  0  0  0  0  0  0  0  0  0  0  0
    3.3145   -8.8294    0.0000 O   0  0  0  0  0  0  0  0  0  0  0  0
    2.5487   -6.3467    0.0000 C   0  0  0  0  0  0  0  0  0  0  0  0
    3.9821   -5.9046    0.0000 C   0  0  0  0  0  0  0  0  0  0  0  0
    1.4492   -5.3265    0.0000 O   0  0  0  0  0  0  0  0  0  0  0  0
   -2.1015   -2.6351    0.0000 C   0  0  0  0  0  0  0  0  0  0  0  0
   -3.0367   -3.8079    0.0000 C   0  0  0  0  0  0  0  0  0  0  0  0
   -3.0367   -1.4624    0.0000 C   0  0  0  0  0  0  0  0  0  0  0  0
   -4.3881   -2.1132    0.0000 O   0  0  0  0  0  0  0  0  0  0  0  0
   -5.6275   -1.2682    0.0000 C   0  0  0  0  0  0  0  0  0  0  0  0
   -5.5154    0.2276    0.0000 O   0  0  0  0  0  0  0  0  0  0  0  0
   -6.7548    1.0725    0.0000 C   0  0  0  0  0  0  0  0  0  0  0  0
   -6.2841    2.4968    0.0000 C   0  0  0  0  0  0  0  0  0  0  0  0
   -8.1062    0.4217    0.0000 C   0  0  0  0  0  0  0  0  0  0  0  0
   -8.2183   -1.0741    0.0000 C   0  0  0  0  0  0  0  0  0  0  0  0
   -9.5698   -1.7249    0.0000 N   0  0  0  0  0  0  0  0  0  0  0  0
  -10.8091   -0.8799    0.0000 C   0  0  0  0  0  0  0  0  0  0  0  0
   -9.6819   -3.2207    0.0000 C   0  0  0  0  0  0  0  0  0  0  0  0
   -6.9790   -1.9191    0.0000 C   0  0  0  0  0  0  0  0  0  0  0  0
   -7.0910   -3.4149    0.0000 O   0  0  0  0  0  0  0  0  0  0  0  0
   -3.3705    0.0000    0.0000 C   0  0  0  0  0  0  0  0  0  0  0  0
   -4.6098   -0.8450    0.0000 C   0  0  0  0  0  0  0  0  0  0  0  0
   -4.6098    0.8450    0.0000 O   0  0  0  0  0  0  0  0  0  0  0  0
   -5.9613    0.1942    0.0000 C   0  0  0  0  0  0  0  0  0  0  0  0
   -7.2006    1.0391    0.0000 C   0  0  0  0  0  0  0  0  0  0  0  0
   -7.0885    2.5349    0.0000 N   0  0  0  0  0  0  0  0  0  0  0  0
   -8.3279    3.3799    0.0000 N   0  0  0  0  0  0  0  0  0  0  0  0
   -8.2158    4.8757    0.0000 C   0  0  0  0  0  0  0  0  0  0  0  0
   -3.0367    1.4624    0.0000 C   0  0  0  0  0  0  0  0  0  0  0  0
   -2.1015    2.6351    0.0000 C   0  0  0  0  0  0  0  0  0  0  0  0
   -3.0367    3.8079    0.0000 C   0  0  0  0  0  0  0  0  0  0  0  0
   -0.7500    3.2860    0.0000 C   0  0  0  0  0  0  0  0  0  0  0  0
   -1.0838    4.7484    0.0000 O   0  0  0  0  0  0  0  0  0  0  0  0
    0.7500    3.2860    0.0000 C   0  0  0  0  0  0  0  0  0  0  0  0
    1.0838    4.7484    0.0000 C   0  0  0  0  0  0  0  0  0  0  0  0
    2.1015    2.6351    0.0000 C   0  0  0  0  0  0  0  0  0  0  0  0
    3.0367    3.8079    0.0000 O   0  0  0  0  0  0  0  0  0  0  0  0
    3.0367    1.4624    0.0000 C   0  0  0  0  0  0  0  0  0  0  0  0
    3.7867    2.7614    0.0000 C   0  0  0  0  0  0  0  0  0  0  0  0
    4.5199    1.2388    0.0000 O   0  0  0  0  0  0  0  0  0  0  0  0
  1  2  1  0
  3  2  1  1
  3  4  1  0
  4  5  1  0
  5  6  2  0
  5  7  1  0
  7  8  1  6
  7  9  1  0
  9 10  1  1
 11 10  1  6
 11 12  1  0
 12 13  1  0
 13 14  1  1
 13 15  1  0
 15 16  1  0
 13 17  1  0
 17 18  1  6
 17 19  1  0
 19 20  1  1
 19 21  1  0
  9 22  1  0
 22 23  1  6
 22 24  1  0
 24 25  1  1
 26 25  1  1
 26 27  1  0
 27 28  1  0
 28 29  1  1
 28 30  1  0
 30 31  1  0
 31 32  1  1
 32 33  1  0
 32 34  1  0
 31 35  1  0
 35 36  1  6
 24 37  1  0
 37 38  1  6
 37 39  1  0
 39 40  1  0
 40 41  1  0
 41 42  2  0
 42 43  1  0
 43 44  1  0
 37 45  1  0
 45 46  1  0
 46 47  1  1
 46 48  1  0
 48 49  2  0
 48 50  1  0
 50 51  1  6
 50 52  1  0
 52 53  1  1
 52 54  1  0
 54 55  1  1
 54 56  1  0
 54  3  1  0
 21 11  1  0
 35 26  1  0
M  END
>  <ChEMBL_IDs>  (410) 
CHEMBL434873

>  <target_organism>  (410) 
Rattus norvegicus

>  <target_molecule_pref_name>  (410) 
nan

>  <# Known Targets>  (410) 
nan

>  <Known Targets>  (410) 
nan

>  <smiles>  (410) 
CC[C@H]1OC(=O)[C@H](C)[C@@H](O[C@H]2C[C@@](C)(OC)[C@@H](O)[C@H](C)O2)[C@H](C)[C@@H](O[C@@H]2O[C@H](C)C[C@H](N(C)C)[C@H]2O)[C@@](C)(OC/C=N/NC)C[C@@H](C)C(=O)[C@H](C)[C@@H](O)[C@]1(C)O

$$$$

     RDKit          2D

 54 56  0  0  0  0  0  0  0  0999 V2000
    8.6694   -0.7347    0.0000 C   0  0  0  0  0  0  0  0  0  0  0  0
    7.2006   -1.0391    0.0000 C   0  0  0  0  0  0  0  0  0  0  0  0
    5.9613   -0.1942    0.0000 C   0  0  0  0  0  0  0  0  0  0  0  0
    4.6098   -0.8450    0.0000 O   0  0  0  0  0  0  0  0  0  0  0  0
    3.3705    0.0000    0.0000 C   0  0  0  0  0  0  0  0  0  0  0  0
    4.6098    0.8450    0.0000 C   0  0  0  0  0  0  0  0  0  0  0  0
    3.0367   -1.4624    0.0000 C   0  0  0  0  0  0  0  0  0  0  0  0
    2.1015   -2.6351    0.0000 C   0  0  0  0  0  0  0  0  0  0  0  0
    3.0367   -3.8079    0.0000 C   0  0  0  0  0  0  0  0  0  0  0  0
    0.7500   -3.2860    0.0000 C   0  0  0  0  0  0  0  0  0  0  0  0
    1.0838   -4.7484    0.0000 O   0  0  0  0  0  0  0  0  0  0  0  0
   -0.7500   -3.2860    0.0000 C   0  0  0  0  0  0  0  0  0  0  0  0
   -1.0838   -4.7484    0.0000 C   0  0  0  0  0  0  0  0  0  0  0  0
   -2.1015   -2.6351    0.0000 C   0  0  0  0  0  0  0  0  0  0  0  0
   -3.0367   -3.8079    0.0000 O   0  0  0  0  0  0  0  0  0  0  0  0
   -3.0367   -1.4624    0.0000 C   0  0  0  0  0  0  0  0  0  0  0  0
   -3.7867   -2.7614    0.0000 C   0  0  0  0  0  0  0  0  0  0  0  0
   -4.5199   -1.2388    0.0000 O   0  0  0  0  0  0  0  0  0  0  0  0
   -3.3705    0.0000    0.0000 C   0  0  0  0  0  0  0  0  0  0  0  0
   -4.8705    0.0000    0.0000 C   0  0  0  0  0  0  0  0  0  0  0  0
   -5.6205    1.2990    0.0000 C   0  0  0  0  0  0  0  0  0  0  0  0
   -3.0367    1.4624    0.0000 O   0  0  0  0  0  0  0  0  0  0  0  0
   -2.1015    2.6351    0.0000 C   0  0  0  0  0  0  0  0  0  0  0  0
   -3.0367    3.8079    0.0000 O   0  0  0  0  0  0  0  0  0  0  0  0
   -0.7500    3.2860    0.0000 C   0  0  0  0  0  0  0  0  0  0  0  0
   -1.3600    4.4903    0.0000 C   0  0  0  0  0  0  0  0  0  0  0  0
    0.7500    3.2860    0.0000 C   0  0  0  0  0  0  0  0  0  0  0  0
    1.0838    4.7484    0.0000 O   0  0  0  0  0  0  0  0  0  0  0  0
   -0.0158    5.7686    0.0000 C   0  0  0  0  0  0  0  0  0  0  0  0
    0.3180    7.2310    0.0000 C   0  0  0  0  0  0  0  0  0  0  0  0
   -0.7816    8.2513    0.0000 C   0  0  0  0  0  0  0  0  0  0  0  0
   -1.4659    9.5861    0.0000 C   0  0  0  0  0  0  0  0  0  0  0  0
    0.4141    9.1570    0.0000 O   0  0  0  0  0  0  0  0  0  0  0  0
    0.2276   10.6453    0.0000 C   0  0  0  0  0  0  0  0  0  0  0  0
   -2.2150    7.8091    0.0000 C   0  0  0  0  0  0  0  0  0  0  0  0
   -3.3145    8.8294    0.0000 O   0  0  0  0  0  0  0  0  0  0  0  0
   -2.5487    6.3467    0.0000 C   0  0  0  0  0  0  0  0  0  0  0  0
   -3.9821    5.9046    0.0000 C   0  0  0  0  0  0  0  0  0  0  0  0
   -1.4492    5.3265    0.0000 O   0  0  0  0  0  0  0  0  0  0  0  0
    2.1015    2.6351    0.0000 C   0  0  0  0  0  0  0  0  0  0  0  0
    3.0367    3.8079    0.0000 C   0  0  0  0  0  0  0  0  0  0  0  0
    3.0367    1.4624    0.0000 C   0  0  0  0  0  0  0  0  0  0  0  0
    4.3881    2.1132    0.0000 O   0  0  0  0  0  0  0  0  0  0  0  0
    5.6275    1.2682    0.0000 C   0  0  0  0  0  0  0  0  0  0  0  0
    5.5154   -0.2276    0.0000 O   0  0  0  0  0  0  0  0  0  0  0  0
    6.7548   -1.0725    0.0000 C   0  0  0  0  0  0  0  0  0  0  0  0
    6.6427   -2.5684    0.0000 C   0  0  0  0  0  0  0  0  0  0  0  0
    8.1062   -0.4217    0.0000 C   0  0  0  0  0  0  0  0  0  0  0  0
    8.2183    1.0741    0.0000 C   0  0  0  0  0  0  0  0  0  0  0  0
    9.5698    1.7249    0.0000 N   0  0  0  0  0  0  0  0  0  0  0  0
   10.8091    0.8799    0.0000 C   0  0  0  0  0  0  0  0  0  0  0  0
    9.6819    3.2207    0.0000 C   0  0  0  0  0  0  0  0  0  0  0  0
    6.9790    1.9191    0.0000 C   0  0  0  0  0  0  0  0  0  0  0  0
    7.0910    3.4149    0.0000 O   0  0  0  0  0  0  0  0  0  0  0  0
  1  2  1  0
  2  3  1  0
  3  4  1  0
  4  5  1  0
  5  6  1  6
  5  7  1  0
  7  8  1  0
  8  9  1  1
  8 10  1  0
 10 11  2  0
 10 12  1  0
 12 13  1  6
 12 14  1  0
 14 15  1  1
 14 16  1  0
 16 17  1  1
 16 18  1  0
 16 19  1  0
 19 20  1  1
 20 21  1  0
 19 22  1  0
 22 23  1  0
 23 24  2  0
 23 25  1  0
 25 26  1  6
 25 27  1  0
 27 28  1  1
 29 28  1  6
 29 30  1  0
 30 31  1  0
 31 32  1  1
 31 33  1  0
 33 34  1  0
 31 35  1  0
 35 36  1  6
 35 37  1  0
 37 38  1  1
 37 39  1  0
 27 40  1  0
 40 41  1  6
 40 42  1  0
 42 43  1  1
 44 43  1  1
 44 45  1  0
 45 46  1  0
 46 47  1  1
 46 48  1  0
 48 49  1  0
 49 50  1  1
 50 51  1  0
 50 52  1  0
 49 53  1  0
 53 54  1  6
 42  5  1  0
 53 44  1  0
 39 29  1  0
M  END
>  <ChEMBL_IDs>  (411) 
CHEMBL435255

>  <target_organism>  (411) 
Rattus norvegicus

>  <target_molecule_pref_name>  (411) 
nan

>  <# Known Targets>  (411) 
nan

>  <Known Targets>  (411) 
nan

>  <smiles>  (411) 
CCCO[C@@]1(C)C[C@@H](C)C(=O)[C@H](C)[C@@H](O)[C@](C)(O)[C@@H](CC)OC(=O)[C@H](C)[C@@H](O[C@H]2C[C@@](C)(OC)[C@@H](O)[C@H](C)O2)[C@H](C)[C@H]1O[C@@H]1O[C@H](C)C[C@H](N(C)C)[C@H]1O

$$$$

     RDKit          2D

 58 60  0  0  0  0  0  0  0  0999 V2000
    5.8573   -1.2990    0.0000 C   0  0  0  0  0  0  0  0  0  0  0  0
    5.1073    0.0000    0.0000 C   0  0  0  0  0  0  0  0  0  0  0  0
    3.6073    0.0000    0.0000 C   0  0  0  0  0  0  0  0  0  0  0  0
    3.2954    1.4672    0.0000 O   0  0  0  0  0  0  0  0  0  0  0  0
    2.4138    2.6807    0.0000 C   0  0  0  0  0  0  0  0  0  0  0  0
    3.4175    3.7955    0.0000 O   0  0  0  0  0  0  0  0  0  0  0  0
    1.1147    3.4307    0.0000 C   0  0  0  0  0  0  0  0  0  0  0  0
    1.8302    4.5756    0.0000 C   0  0  0  0  0  0  0  0  0  0  0  0
   -0.3771    3.5875    0.0000 C   0  0  0  0  0  0  0  0  0  0  0  0
   -0.5339    5.0793    0.0000 O   0  0  0  0  0  0  0  0  0  0  0  0
    0.6797    5.9610    0.0000 C   0  0  0  0  0  0  0  0  0  0  0  0
    0.5229    7.4528    0.0000 C   0  0  0  0  0  0  0  0  0  0  0  0
    1.7364    8.3345    0.0000 C   0  0  0  0  0  0  0  0  0  0  0  0
    2.5752    9.5780    0.0000 C   0  0  0  0  0  0  0  0  0  0  0  0
    0.6574    9.3764    0.0000 O   0  0  0  0  0  0  0  0  0  0  0  0
    1.0203   10.8319    0.0000 C   0  0  0  0  0  0  0  0  0  0  0  0
    3.1067    7.7244    0.0000 C   0  0  0  0  0  0  0  0  0  0  0  0
    3.4696    9.1798    0.0000 O   0  0  0  0  0  0  0  0  0  0  0  0
    4.6031    7.6197    0.0000 C   0  0  0  0  0  0  0  0  0  0  0  0
    5.4419    8.8633    0.0000 N   0  0  0  0  0  0  0  0  0  0  0  0
    6.9382    8.7586    0.0000 C   0  0  0  0  0  0  0  0  0  0  0  0
    7.7770   10.0022    0.0000 C   0  0  0  0  0  0  0  0  0  0  0  0
    8.6158   11.2458    0.0000 F   0  0  0  0  0  0  0  0  0  0  0  0
    9.0205    9.1634    0.0000 F   0  0  0  0  0  0  0  0  0  0  0  0
    6.5334   10.8410    0.0000 F   0  0  0  0  0  0  0  0  0  0  0  0
    3.2635    6.2326    0.0000 C   0  0  0  0  0  0  0  0  0  0  0  0
    4.6338    5.6225    0.0000 C   0  0  0  0  0  0  0  0  0  0  0  0
    2.0500    5.3509    0.0000 O   0  0  0  0  0  0  0  0  0  0  0  0
   -1.8037    3.1240    0.0000 C   0  0  0  0  0  0  0  0  0  0  0  0
   -2.5537    4.4231    0.0000 C   0  0  0  0  0  0  0  0  0  0  0  0
   -2.9184    2.1203    0.0000 C   0  0  0  0  0  0  0  0  0  0  0  0
   -4.1319    3.0020    0.0000 O   0  0  0  0  0  0  0  0  0  0  0  0
   -5.5022    2.3919    0.0000 C   0  0  0  0  0  0  0  0  0  0  0  0
   -6.7157    3.2736    0.0000 O   0  0  0  0  0  0  0  0  0  0  0  0
   -8.0861    2.6635    0.0000 C   0  0  0  0  0  0  0  0  0  0  0  0
   -9.2996    3.5451    0.0000 C   0  0  0  0  0  0  0  0  0  0  0  0
   -8.2428    1.1717    0.0000 C   0  0  0  0  0  0  0  0  0  0  0  0
   -7.0293    0.2900    0.0000 C   0  0  0  0  0  0  0  0  0  0  0  0
   -7.1861   -1.2018    0.0000 N   0  0  0  0  0  0  0  0  0  0  0  0
   -8.5564   -1.8119    0.0000 C   0  0  0  0  0  0  0  0  0  0  0  0
   -5.9726   -2.0835    0.0000 C   0  0  0  0  0  0  0  0  0  0  0  0
   -5.6590    0.9001    0.0000 C   0  0  0  0  0  0  0  0  0  0  0  0
   -5.0760    0.3564    0.0000 O   0  0  0  0  0  0  0  0  0  0  0  0
   -3.5285    0.7500    0.0000 C   0  0  0  0  0  0  0  0  0  0  0  0
   -4.2257    0.3635    0.0000 C   0  0  0  0  0  0  0  0  0  0  0  0
   -4.5705    1.8290    0.0000 O   0  0  0  0  0  0  0  0  0  0  0  0
   -3.5285   -0.7500    0.0000 C   0  0  0  0  0  0  0  0  0  0  0  0
   -2.9184   -2.1203    0.0000 C   0  0  0  0  0  0  0  0  0  0  0  0
   -4.1319   -3.0020    0.0000 C   0  0  0  0  0  0  0  0  0  0  0  0
   -1.8037   -3.1240    0.0000 C   0  0  0  0  0  0  0  0  0  0  0  0
   -0.3771   -3.5875    0.0000 N   0  0  0  0  0  0  0  0  0  0  0  0
    1.1147   -3.4307    0.0000 C   0  0  0  0  0  0  0  0  0  0  0  0
    1.5782   -4.8573    0.0000 C   0  0  0  0  0  0  0  0  0  0  0  0
    2.4138   -2.6807    0.0000 C   0  0  0  0  0  0  0  0  0  0  0  0
    3.4175   -3.7955    0.0000 O   0  0  0  0  0  0  0  0  0  0  0  0
    3.2954   -1.4672    0.0000 C   0  0  0  0  0  0  0  0  0  0  0  0
    4.7726   -1.2067    0.0000 C   0  0  0  0  0  0  0  0  0  0  0  0
    4.0903   -2.7393    0.0000 O   0  0  0  0  0  0  0  0  0  0  0  0
  1  2  1  0
  3  2  1  6
  3  4  1  0
  4  5  1  0
  5  6  2  0
  5  7  1  0
  7  8  1  1
  7  9  1  0
  9 10  1  6
 11 10  1  1
 11 12  1  0
 12 13  1  0
 13 14  1  6
 13 15  1  0
 15 16  1  0
 13 17  1  0
 17 18  1  6
 17 19  1  0
 19 20  1  0
 20 21  1  0
 21 22  1  0
 22 23  1  0
 22 24  1  0
 22 25  1  0
 17 26  1  0
 26 27  1  6
 26 28  1  0
  9 29  1  0
 29 30  1  1
 29 31  1  0
 31 32  1  6
 33 32  1  1
 33 34  1  0
 34 35  1  0
 35 36  1  1
 35 37  1  0
 37 38  1  0
 38 39  1  1
 39 40  1  0
 39 41  1  0
 38 42  1  0
 42 43  1  6
 31 44  1  0
 44 45  1  6
 44 46  1  0
 44 47  1  0
 47 48  1  0
 48 49  1  6
 48 50  1  0
 50 51  1  0
 51 52  1  0
 52 53  1  1
 52 54  1  0
 54 55  1  6
 54 56  1  0
 56 57  1  6
 56 58  1  0
 56  3  1  0
 28 11  1  0
 42 33  1  0
M  END
>  <ChEMBL_IDs>  (412) 
CHEMBL96164

>  <target_organism>  (412) 
None

>  <target_molecule_pref_name>  (412) 
nan

>  <# Known Targets>  (412) 
nan

>  <Known Targets>  (412) 
nan

>  <smiles>  (412) 
CC[C@H]1OC(=O)[C@H](C)[C@@H](O[C@H]2C[C@@](C)(OC)[C@@](O)(CNCC(F)(F)F)[C@H](C)O2)[C@H](C)[C@@H](O[C@@H]2O[C@H](C)C[C@H](N(C)C)[C@H]2O)[C@](C)(O)C[C@@H](C)CN[C@H](C)[C@@H](O)[C@]1(C)O

$$$$

     RDKit          2D

 54 56  0  0  0  0  0  0  0  0999 V2000
    6.9313   10.0921    0.0000 C   0  0  0  0  0  0  0  0  0  0  0  0
    5.8523    9.0501    0.0000 C   0  0  0  0  0  0  0  0  0  0  0  0
    6.2151    7.5947    0.0000 C   0  0  0  0  0  0  0  0  0  0  0  0
    5.1361    6.5527    0.0000 C   0  0  0  0  0  0  0  0  0  0  0  0
    4.2973    7.7962    0.0000 O   0  0  0  0  0  0  0  0  0  0  0  0
    3.7658    5.9426    0.0000 C   0  0  0  0  0  0  0  0  0  0  0  0
    2.5523    6.8242    0.0000 C   0  0  0  0  0  0  0  0  0  0  0  0
    3.6090    4.4508    0.0000 O   0  0  0  0  0  0  0  0  0  0  0  0
    4.8225    3.5691    0.0000 C   0  0  0  0  0  0  0  0  0  0  0  0
    4.6658    2.0773    0.0000 O   0  0  0  0  0  0  0  0  0  0  0  0
    3.2954    1.4672    0.0000 C   0  0  0  0  0  0  0  0  0  0  0  0
    3.6073    0.0000    0.0000 C   0  0  0  0  0  0  0  0  0  0  0  0
    5.1073    0.0000    0.0000 C   0  0  0  0  0  0  0  0  0  0  0  0
    3.2954   -1.4672    0.0000 C   0  0  0  0  0  0  0  0  0  0  0  0
    4.6658   -2.0773    0.0000 O   0  0  0  0  0  0  0  0  0  0  0  0
    4.8225   -3.5691    0.0000 C   0  0  0  0  0  0  0  0  0  0  0  0
    3.6090   -4.4508    0.0000 O   0  0  0  0  0  0  0  0  0  0  0  0
    3.7658   -5.9426    0.0000 C   0  0  0  0  0  0  0  0  0  0  0  0
    2.5523   -6.8242    0.0000 C   0  0  0  0  0  0  0  0  0  0  0  0
    5.1361   -6.5527    0.0000 C   0  0  0  0  0  0  0  0  0  0  0  0
    6.3497   -5.6710    0.0000 C   0  0  0  0  0  0  0  0  0  0  0  0
    7.7200   -6.2811    0.0000 N   0  0  0  0  0  0  0  0  0  0  0  0
    7.8768   -7.7729    0.0000 C   0  0  0  0  0  0  0  0  0  0  0  0
    8.9335   -5.3994    0.0000 C   0  0  0  0  0  0  0  0  0  0  0  0
    6.1929   -4.1792    0.0000 C   0  0  0  0  0  0  0  0  0  0  0  0
    7.4064   -3.2975    0.0000 O   0  0  0  0  0  0  0  0  0  0  0  0
    2.4138   -2.6807    0.0000 C   0  0  0  0  0  0  0  0  0  0  0  0
    3.8692   -3.0436    0.0000 C   0  0  0  0  0  0  0  0  0  0  0  0
    2.6225   -4.1661    0.0000 O   0  0  0  0  0  0  0  0  0  0  0  0
    1.1147   -3.4307    0.0000 C   0  0  0  0  0  0  0  0  0  0  0  0
   -0.3771   -3.5875    0.0000 C   0  0  0  0  0  0  0  0  0  0  0  0
   -0.5339   -5.0793    0.0000 C   0  0  0  0  0  0  0  0  0  0  0  0
   -1.8037   -3.1240    0.0000 C   0  0  0  0  0  0  0  0  0  0  0  0
   -2.9184   -2.1203    0.0000 N   0  0  0  0  0  0  0  0  0  0  0  0
   -3.5285   -0.7500    0.0000 C   0  0  0  0  0  0  0  0  0  0  0  0
   -4.9957   -1.0619    0.0000 C   0  0  0  0  0  0  0  0  0  0  0  0
   -3.5285    0.7500    0.0000 C   0  0  0  0  0  0  0  0  0  0  0  0
   -4.9957    1.0619    0.0000 O   0  0  0  0  0  0  0  0  0  0  0  0
   -2.9184    2.1203    0.0000 C   0  0  0  0  0  0  0  0  0  0  0  0
   -4.4175    2.1727    0.0000 C   0  0  0  0  0  0  0  0  0  0  0  0
   -3.4314    3.5299    0.0000 O   0  0  0  0  0  0  0  0  0  0  0  0
   -1.8037    3.1240    0.0000 C   0  0  0  0  0  0  0  0  0  0  0  0
   -2.5537    4.4231    0.0000 C   0  0  0  0  0  0  0  0  0  0  0  0
   -1.8037    5.7221    0.0000 C   0  0  0  0  0  0  0  0  0  0  0  0
   -0.3771    3.5875    0.0000 O   0  0  0  0  0  0  0  0  0  0  0  0
    1.1147    3.4307    0.0000 C   0  0  0  0  0  0  0  0  0  0  0  0
    1.5782    4.8573    0.0000 O   0  0  0  0  0  0  0  0  0  0  0  0
    2.4138    2.6807    0.0000 C   0  0  0  0  0  0  0  0  0  0  0  0
    3.0475    3.8728    0.0000 C   0  0  0  0  0  0  0  0  0  0  0  0
    6.1929    4.1792    0.0000 C   0  0  0  0  0  0  0  0  0  0  0  0
    6.3497    5.6710    0.0000 C   0  0  0  0  0  0  0  0  0  0  0  0
    7.7915    5.2575    0.0000 C   0  0  0  0  0  0  0  0  0  0  0  0
    7.0072    7.0192    0.0000 O   0  0  0  0  0  0  0  0  0  0  0  0
    8.5036    7.1238    0.0000 C   0  0  0  0  0  0  0  0  0  0  0  0
  1  2  2  0
  2  3  1  0
  3  4  1  0
  4  5  1  1
  4  6  1  0
  6  7  1  1
  6  8  1  0
  8  9  1  0
  9 10  1  6
 11 10  1  1
 11 12  1  0
 12 13  1  6
 12 14  1  0
 14 15  1  1
 16 15  1  1
 16 17  1  0
 17 18  1  0
 18 19  1  1
 18 20  1  0
 20 21  1  0
 21 22  1  1
 22 23  1  0
 22 24  1  0
 21 25  1  0
 25 26  1  6
 14 27  1  0
 27 28  1  1
 27 29  1  0
 27 30  1  0
 30 31  1  0
 31 32  1  1
 31 33  1  0
 33 34  1  0
 34 35  1  0
 35 36  1  6
 35 37  1  0
 37 38  1  1
 37 39  1  0
 39 40  1  1
 39 41  1  0
 39 42  1  0
 42 43  1  1
 43 44  1  0
 42 45  1  0
 45 46  1  0
 46 47  2  0
 46 48  1  0
 48 49  1  6
  9 50  1  0
 50 51  1  0
 51 52  1  1
 51 53  1  0
 53 54  1  0
 51  4  1  0
 48 11  1  0
 25 16  1  0
M  END
>  <ChEMBL_IDs>  (413) 
CHEMBL292597

>  <target_organism>  (413) 
None

>  <target_molecule_pref_name>  (413) 
nan

>  <# Known Targets>  (413) 
nan

>  <Known Targets>  (413) 
nan

>  <smiles>  (413) 
C=CC[C@@]1(O)[C@H](C)O[C@@H](O[C@H]2[C@H](C)[C@@H](O[C@@H]3O[C@H](C)C[C@H](N(C)C)[C@H]3O)[C@](C)(O)C[C@@H](C)CN[C@H](C)[C@@H](O)[C@](C)(O)[C@@H](CC)OC(=O)[C@@H]2C)C[C@@]1(C)OC

$$$$

     RDKit          2D

 55 57  0  0  0  0  0  0  0  0999 V2000
    9.3705    2.5981    0.0000 C   0  0  0  0  0  0  0  0  0  0  0  0
    7.8705    2.5981    0.0000 C   0  0  0  0  0  0  0  0  0  0  0  0
    7.1205    1.2990    0.0000 C   0  0  0  0  0  0  0  0  0  0  0  0
    5.6205    1.2990    0.0000 O   0  0  0  0  0  0  0  0  0  0  0  0
    4.8705    0.0000    0.0000 N   0  0  0  0  0  0  0  0  0  0  0  0
    3.3705    0.0000    0.0000 C   0  0  0  0  0  0  0  0  0  0  0  0
    3.0367   -1.4624    0.0000 C   0  0  0  0  0  0  0  0  0  0  0  0
    4.3881   -2.1132    0.0000 C   0  0  0  0  0  0  0  0  0  0  0  0
    2.1015   -2.6351    0.0000 C   0  0  0  0  0  0  0  0  0  0  0  0
    3.0367   -3.8079    0.0000 O   0  0  0  0  0  0  0  0  0  0  0  0
    0.7500   -3.2860    0.0000 C   0  0  0  0  0  0  0  0  0  0  0  0
    1.8496   -4.3062    0.0000 C   0  0  0  0  0  0  0  0  0  0  0  0
    0.2020   -4.6823    0.0000 O   0  0  0  0  0  0  0  0  0  0  0  0
   -0.7500   -3.2860    0.0000 C   0  0  0  0  0  0  0  0  0  0  0  0
   -1.0838   -4.7484    0.0000 C   0  0  0  0  0  0  0  0  0  0  0  0
   -2.5171   -5.1905    0.0000 C   0  0  0  0  0  0  0  0  0  0  0  0
   -2.1015   -2.6351    0.0000 O   0  0  0  0  0  0  0  0  0  0  0  0
   -3.0367   -1.4624    0.0000 C   0  0  0  0  0  0  0  0  0  0  0  0
   -4.3881   -2.1132    0.0000 O   0  0  0  0  0  0  0  0  0  0  0  0
   -3.3705    0.0000    0.0000 C   0  0  0  0  0  0  0  0  0  0  0  0
   -4.6804   -0.3267    0.0000 C   0  0  0  0  0  0  0  0  0  0  0  0
   -3.0367    1.4624    0.0000 C   0  0  0  0  0  0  0  0  0  0  0  0
   -4.3881    2.1132    0.0000 O   0  0  0  0  0  0  0  0  0  0  0  0
   -5.6275    1.2682    0.0000 C   0  0  0  0  0  0  0  0  0  0  0  0
   -6.9790    1.9191    0.0000 C   0  0  0  0  0  0  0  0  0  0  0  0
   -8.2183    1.0741    0.0000 C   0  0  0  0  0  0  0  0  0  0  0  0
   -9.6719    0.7039    0.0000 C   0  0  0  0  0  0  0  0  0  0  0  0
   -8.8352    2.4413    0.0000 O   0  0  0  0  0  0  0  0  0  0  0  0
  -10.3278    2.5907    0.0000 C   0  0  0  0  0  0  0  0  0  0  0  0
   -8.1062   -0.4217    0.0000 C   0  0  0  0  0  0  0  0  0  0  0  0
   -9.3456   -1.2667    0.0000 O   0  0  0  0  0  0  0  0  0  0  0  0
   -6.7548   -1.0725    0.0000 C   0  0  0  0  0  0  0  0  0  0  0  0
   -6.6427   -2.5684    0.0000 C   0  0  0  0  0  0  0  0  0  0  0  0
   -5.5154   -0.2276    0.0000 O   0  0  0  0  0  0  0  0  0  0  0  0
   -2.1015    2.6351    0.0000 C   0  0  0  0  0  0  0  0  0  0  0  0
   -3.0367    3.8079    0.0000 C   0  0  0  0  0  0  0  0  0  0  0  0
   -0.7500    3.2860    0.0000 C   0  0  0  0  0  0  0  0  0  0  0  0
   -1.0838    4.7484    0.0000 O   0  0  0  0  0  0  0  0  0  0  0  0
    0.0158    5.7686    0.0000 C   0  0  0  0  0  0  0  0  0  0  0  0
    1.4492    5.3265    0.0000 O   0  0  0  0  0  0  0  0  0  0  0  0
    2.5487    6.3467    0.0000 C   0  0  0  0  0  0  0  0  0  0  0  0
    3.9821    5.9046    0.0000 C   0  0  0  0  0  0  0  0  0  0  0  0
    2.2150    7.8091    0.0000 C   0  0  0  0  0  0  0  0  0  0  0  0
    0.7816    8.2513    0.0000 C   0  0  0  0  0  0  0  0  0  0  0  0
    0.4478    9.7137    0.0000 N   0  0  0  0  0  0  0  0  0  0  0  0
    1.5474   10.7339    0.0000 C   0  0  0  0  0  0  0  0  0  0  0  0
   -0.9855   10.1558    0.0000 C   0  0  0  0  0  0  0  0  0  0  0  0
   -0.3180    7.2310    0.0000 C   0  0  0  0  0  0  0  0  0  0  0  0
   -1.7513    7.6731    0.0000 O   0  0  0  0  0  0  0  0  0  0  0  0
    0.7500    3.2860    0.0000 C   0  0  0  0  0  0  0  0  0  0  0  0
    0.2020    4.6823    0.0000 C   0  0  0  0  0  0  0  0  0  0  0  0
    1.8496    4.3062    0.0000 O   0  0  0  0  0  0  0  0  0  0  0  0
    2.1015    2.6351    0.0000 C   0  0  0  0  0  0  0  0  0  0  0  0
    3.0367    1.4624    0.0000 C   0  0  0  0  0  0  0  0  0  0  0  0
    4.3881    2.1132    0.0000 C   0  0  0  0  0  0  0  0  0  0  0  0
  1  2  1  0
  2  3  1  0
  3  4  1  0
  4  5  1  0
  5  6  2  0
  6  7  1  0
  7  8  1  6
  7  9  1  0
  9 10  1  1
  9 11  1  0
 11 12  1  1
 11 13  1  0
 11 14  1  0
 14 15  1  1
 15 16  1  0
 14 17  1  0
 17 18  1  0
 18 19  2  0
 18 20  1  0
 20 21  1  6
 20 22  1  0
 22 23  1  1
 23 24  1  0
 24 25  1  0
 25 26  1  0
 26 27  1  1
 26 28  1  0
 28 29  1  0
 26 30  1  0
 30 31  1  6
 30 32  1  0
 32 33  1  1
 32 34  1  0
 22 35  1  0
 35 36  1  6
 35 37  1  0
 37 38  1  1
 39 38  1  1
 39 40  1  0
 40 41  1  0
 41 42  1  1
 41 43  1  0
 43 44  1  0
 44 45  1  1
 45 46  1  0
 45 47  1  0
 44 48  1  0
 48 49  1  6
 37 50  1  0
 50 51  1  1
 50 52  1  0
 50 53  1  0
 53 54  1  0
 54 55  1  1
 54  6  1  0
 34 24  1  0
 48 39  1  0
M  END
>  <ChEMBL_IDs>  (414) 
nan

>  <target_organism>  (414) 
nan

>  <target_molecule_pref_name>  (414) 
nan

>  <# Known Targets>  (414) 
nan

>  <Known Targets>  (414) 
nan

>  <smiles>  (414) 
CCCO/N=C1/[C@H](C)[C@@H](O)[C@](C)(O)[C@@H](CC)OC(=O)[C@H](C)[C@@H](OC2C[C@@](C)(OC)[C@@H](O)[C@H](C)O2)[C@H](C)[C@@H](O[C@@H]2O[C@H](C)C[C@H](N(C)C)[C@H]2O)[C@](C)(O)C[C@H]1C

$$$$

     RDKit          2D

 54 56  0  0  0  0  0  0  0  0999 V2000
    7.3573    1.2990    0.0000 C   0  0  0  0  0  0  0  0  0  0  0  0
    5.8573    1.2990    0.0000 C   0  0  0  0  0  0  0  0  0  0  0  0
    5.1073    0.0000    0.0000 C   0  0  0  0  0  0  0  0  0  0  0  0
    3.6073    0.0000    0.0000 N   0  0  0  0  0  0  0  0  0  0  0  0
    3.2954    1.4672    0.0000 C   0  0  0  0  0  0  0  0  0  0  0  0
    2.4138    2.6807    0.0000 C   0  0  0  0  0  0  0  0  0  0  0  0
    3.4175    3.7955    0.0000 C   0  0  0  0  0  0  0  0  0  0  0  0
    1.1147    3.4307    0.0000 C   0  0  0  0  0  0  0  0  0  0  0  0
    1.5782    4.8573    0.0000 O   0  0  0  0  0  0  0  0  0  0  0  0
   -0.3771    3.5875    0.0000 C   0  0  0  0  0  0  0  0  0  0  0  0
   -1.3412    4.7366    0.0000 C   0  0  0  0  0  0  0  0  0  0  0  0
    0.3271    4.9120    0.0000 O   0  0  0  0  0  0  0  0  0  0  0  0
   -1.8037    3.1240    0.0000 C   0  0  0  0  0  0  0  0  0  0  0  0
   -2.5537    4.4231    0.0000 C   0  0  0  0  0  0  0  0  0  0  0  0
   -1.8037    5.7221    0.0000 C   0  0  0  0  0  0  0  0  0  0  0  0
   -2.9184    2.1203    0.0000 O   0  0  0  0  0  0  0  0  0  0  0  0
   -3.5285    0.7500    0.0000 C   0  0  0  0  0  0  0  0  0  0  0  0
   -4.9957    1.0619    0.0000 O   0  0  0  0  0  0  0  0  0  0  0  0
   -3.5285   -0.7500    0.0000 C   0  0  0  0  0  0  0  0  0  0  0  0
   -4.8776   -0.7028    0.0000 C   0  0  0  0  0  0  0  0  0  0  0  0
   -2.9184   -2.1203    0.0000 C   0  0  0  0  0  0  0  0  0  0  0  0
   -4.1319   -3.0020    0.0000 O   0  0  0  0  0  0  0  0  0  0  0  0
   -5.5022   -2.3919    0.0000 C   0  0  0  0  0  0  0  0  0  0  0  0
   -6.7157   -3.2736    0.0000 C   0  0  0  0  0  0  0  0  0  0  0  0
   -8.0861   -2.6635    0.0000 C   0  0  0  0  0  0  0  0  0  0  0  0
   -9.5824   -2.5588    0.0000 C   0  0  0  0  0  0  0  0  0  0  0  0
   -8.4489   -4.1189    0.0000 O   0  0  0  0  0  0  0  0  0  0  0  0
   -9.8908   -4.5324    0.0000 C   0  0  0  0  0  0  0  0  0  0  0  0
   -8.2428   -1.1717    0.0000 C   0  0  0  0  0  0  0  0  0  0  0  0
   -9.6132   -0.5616    0.0000 N   0  0  0  0  0  0  0  0  0  0  0  0
   -7.0293   -0.2900    0.0000 C   0  0  0  0  0  0  0  0  0  0  0  0
   -7.1861    1.2018    0.0000 C   0  0  0  0  0  0  0  0  0  0  0  0
   -5.6590   -0.9001    0.0000 O   0  0  0  0  0  0  0  0  0  0  0  0
   -1.8037   -3.1240    0.0000 C   0  0  0  0  0  0  0  0  0  0  0  0
   -2.5537   -4.4231    0.0000 C   0  0  0  0  0  0  0  0  0  0  0  0
   -0.3771   -3.5875    0.0000 C   0  0  0  0  0  0  0  0  0  0  0  0
   -0.5339   -5.0793    0.0000 O   0  0  0  0  0  0  0  0  0  0  0  0
    0.6797   -5.9610    0.0000 C   0  0  0  0  0  0  0  0  0  0  0  0
    0.5229   -7.4528    0.0000 O   0  0  0  0  0  0  0  0  0  0  0  0
    1.7364   -8.3345    0.0000 C   0  0  0  0  0  0  0  0  0  0  0  0
    1.5796   -9.8262    0.0000 C   0  0  0  0  0  0  0  0  0  0  0  0
    3.1067   -7.7244    0.0000 C   0  0  0  0  0  0  0  0  0  0  0  0
    3.2635   -6.2326    0.0000 C   0  0  0  0  0  0  0  0  0  0  0  0
    4.6338   -5.6225    0.0000 N   0  0  0  0  0  0  0  0  0  0  0  0
    5.8474   -6.5041    0.0000 C   0  0  0  0  0  0  0  0  0  0  0  0
    4.7906   -4.1307    0.0000 C   0  0  0  0  0  0  0  0  0  0  0  0
    2.0500   -5.3509    0.0000 C   0  0  0  0  0  0  0  0  0  0  0  0
    2.2293   -4.5742    0.0000 O   0  0  0  0  0  0  0  0  0  0  0  0
    1.1147   -3.4307    0.0000 C   0  0  0  0  0  0  0  0  0  0  0  0
    1.7980   -3.8413    0.0000 C   0  0  0  0  0  0  0  0  0  0  0  0
    0.7013   -4.8726    0.0000 O   0  0  0  0  0  0  0  0  0  0  0  0
    2.4138   -2.6807    0.0000 C   0  0  0  0  0  0  0  0  0  0  0  0
    3.2954   -1.4672    0.0000 C   0  0  0  0  0  0  0  0  0  0  0  0
    4.6658   -2.0773    0.0000 C   0  0  0  0  0  0  0  0  0  0  0  0
  1  2  2  0
  2  3  1  0
  3  4  1  0
  4  5  1  0
  5  6  1  0
  6  7  1  1
  6  8  1  0
  8  9  1  6
  8 10  1  0
 10 11  1  6
 10 12  1  0
 10 13  1  0
 13 14  1  6
 14 15  1  0
 13 16  1  0
 16 17  1  0
 17 18  2  0
 17 19  1  0
 19 20  1  1
 19 21  1  0
 21 22  1  6
 23 22  1  1
 23 24  1  0
 24 25  1  0
 25 26  1  6
 25 27  1  0
 27 28  1  0
 25 29  1  0
 29 30  1  0
 29 31  1  0
 31 32  1  6
 31 33  1  0
 21 34  1  0
 34 35  1  1
 34 36  1  0
 36 37  1  6
 38 37  1  1
 38 39  1  0
 39 40  1  0
 40 41  1  1
 40 42  1  0
 42 43  1  0
 43 44  1  1
 44 45  1  0
 44 46  1  0
 43 47  1  0
 47 48  1  6
 36 49  1  0
 49 50  1  6
 49 51  1  0
 49 52  1  0
 52 53  1  0
 53 54  1  6
 53  4  1  0
 33 23  1  0
 47 38  1  0
M  END
>  <ChEMBL_IDs>  (415) 
CHEMBL269195

>  <target_organism>  (415) 
None

>  <target_molecule_pref_name>  (415) 
nan

>  <# Known Targets>  (415) 
nan

>  <Known Targets>  (415) 
nan

>  <smiles>  (415) 
C=CCN1C[C@H](C)[C@@H](O)[C@](C)(O)[C@@H](CC)OC(=O)[C@H](C)[C@@H](O[C@H]2C[C@@](C)(OC)C(N)[C@H](C)O2)[C@H](C)[C@@H](O[C@@H]2O[C@H](C)C[C@H](N(C)C)[C@H]2O)[C@](C)(O)C[C@H]1C

$$$$

     RDKit          2D

 54 56  0  0  0  0  0  0  0  0999 V2000
    6.9313   10.0921    0.0000 C   0  0  0  0  0  0  0  0  0  0  0  0
    5.8523    9.0501    0.0000 C   0  0  0  0  0  0  0  0  0  0  0  0
    6.2151    7.5947    0.0000 C   0  0  0  0  0  0  0  0  0  0  0  0
    5.1361    6.5527    0.0000 C   0  0  0  0  0  0  0  0  0  0  0  0
    4.2973    7.7962    0.0000 O   0  0  0  0  0  0  0  0  0  0  0  0
    3.7658    5.9426    0.0000 C   0  0  0  0  0  0  0  0  0  0  0  0
    2.5523    6.8242    0.0000 C   0  0  0  0  0  0  0  0  0  0  0  0
    3.6090    4.4508    0.0000 O   0  0  0  0  0  0  0  0  0  0  0  0
    4.8225    3.5691    0.0000 C   0  0  0  0  0  0  0  0  0  0  0  0
    4.6658    2.0773    0.0000 O   0  0  0  0  0  0  0  0  0  0  0  0
    3.2954    1.4672    0.0000 C   0  0  0  0  0  0  0  0  0  0  0  0
    3.6073    0.0000    0.0000 C   0  0  0  0  0  0  0  0  0  0  0  0
    5.1073    0.0000    0.0000 C   0  0  0  0  0  0  0  0  0  0  0  0
    3.2954   -1.4672    0.0000 C   0  0  0  0  0  0  0  0  0  0  0  0
    4.6658   -2.0773    0.0000 O   0  0  0  0  0  0  0  0  0  0  0  0
    4.8225   -3.5691    0.0000 C   0  0  0  0  0  0  0  0  0  0  0  0
    3.6090   -4.4508    0.0000 O   0  0  0  0  0  0  0  0  0  0  0  0
    3.7658   -5.9426    0.0000 C   0  0  0  0  0  0  0  0  0  0  0  0
    2.5523   -6.8242    0.0000 C   0  0  0  0  0  0  0  0  0  0  0  0
    5.1361   -6.5527    0.0000 C   0  0  0  0  0  0  0  0  0  0  0  0
    6.3497   -5.6710    0.0000 C   0  0  0  0  0  0  0  0  0  0  0  0
    7.7200   -6.2811    0.0000 N   0  0  0  0  0  0  0  0  0  0  0  0
    7.8768   -7.7729    0.0000 C   0  0  0  0  0  0  0  0  0  0  0  0
    8.9335   -5.3994    0.0000 C   0  0  0  0  0  0  0  0  0  0  0  0
    6.1929   -4.1792    0.0000 C   0  0  0  0  0  0  0  0  0  0  0  0
    7.4064   -3.2975    0.0000 O   0  0  0  0  0  0  0  0  0  0  0  0
    2.4138   -2.6807    0.0000 C   0  0  0  0  0  0  0  0  0  0  0  0
    3.8692   -3.0436    0.0000 C   0  0  0  0  0  0  0  0  0  0  0  0
    2.6225   -4.1661    0.0000 O   0  0  0  0  0  0  0  0  0  0  0  0
    1.1147   -3.4307    0.0000 C   0  0  0  0  0  0  0  0  0  0  0  0
   -0.3771   -3.5875    0.0000 C   0  0  0  0  0  0  0  0  0  0  0  0
   -0.5339   -5.0793    0.0000 C   0  0  0  0  0  0  0  0  0  0  0  0
   -1.8037   -3.1240    0.0000 C   0  0  0  0  0  0  0  0  0  0  0  0
   -2.9184   -2.1203    0.0000 N   0  0  0  0  0  0  0  0  0  0  0  0
   -3.5285   -0.7500    0.0000 C   0  0  0  0  0  0  0  0  0  0  0  0
   -4.9957   -1.0619    0.0000 C   0  0  0  0  0  0  0  0  0  0  0  0
   -3.5285    0.7500    0.0000 C   0  0  0  0  0  0  0  0  0  0  0  0
   -4.9957    1.0619    0.0000 O   0  0  0  0  0  0  0  0  0  0  0  0
   -2.9184    2.1203    0.0000 C   0  0  0  0  0  0  0  0  0  0  0  0
   -4.4175    2.1727    0.0000 C   0  0  0  0  0  0  0  0  0  0  0  0
   -3.4314    3.5299    0.0000 O   0  0  0  0  0  0  0  0  0  0  0  0
   -1.8037    3.1240    0.0000 C   0  0  0  0  0  0  0  0  0  0  0  0
   -2.5537    4.4231    0.0000 C   0  0  0  0  0  0  0  0  0  0  0  0
   -1.8037    5.7221    0.0000 C   0  0  0  0  0  0  0  0  0  0  0  0
   -0.3771    3.5875    0.0000 O   0  0  0  0  0  0  0  0  0  0  0  0
    1.1147    3.4307    0.0000 C   0  0  0  0  0  0  0  0  0  0  0  0
    1.5782    4.8573    0.0000 O   0  0  0  0  0  0  0  0  0  0  0  0
    2.4138    2.6807    0.0000 C   0  0  0  0  0  0  0  0  0  0  0  0
    3.0475    3.8728    0.0000 C   0  0  0  0  0  0  0  0  0  0  0  0
    6.1929    4.1792    0.0000 C   0  0  0  0  0  0  0  0  0  0  0  0
    6.3497    5.6710    0.0000 C   0  0  0  0  0  0  0  0  0  0  0  0
    7.7915    5.2575    0.0000 C   0  0  0  0  0  0  0  0  0  0  0  0
    7.0072    7.0192    0.0000 O   0  0  0  0  0  0  0  0  0  0  0  0
    8.5036    7.1238    0.0000 C   0  0  0  0  0  0  0  0  0  0  0  0
  1  2  1  0
  2  3  1  0
  3  4  1  0
  4  5  1  1
  4  6  1  0
  6  7  1  1
  6  8  1  0
  8  9  1  0
  9 10  1  6
 11 10  1  1
 11 12  1  0
 12 13  1  6
 12 14  1  0
 14 15  1  1
 16 15  1  1
 16 17  1  0
 17 18  1  0
 18 19  1  1
 18 20  1  0
 20 21  1  0
 21 22  1  1
 22 23  1  0
 22 24  1  0
 21 25  1  0
 25 26  1  6
 14 27  1  0
 27 28  1  1
 27 29  1  0
 27 30  1  0
 30 31  1  0
 31 32  1  1
 31 33  1  0
 33 34  1  0
 34 35  1  0
 35 36  1  6
 35 37  1  0
 37 38  1  1
 37 39  1  0
 39 40  1  1
 39 41  1  0
 39 42  1  0
 42 43  1  1
 43 44  1  0
 42 45  1  0
 45 46  1  0
 46 47  2  0
 46 48  1  0
 48 49  1  6
  9 50  1  0
 50 51  1  0
 51 52  1  1
 51 53  1  0
 53 54  1  0
 51  4  1  0
 48 11  1  0
 25 16  1  0
M  END
>  <ChEMBL_IDs>  (416) 
CHEMBL300373

>  <target_organism>  (416) 
None

>  <target_molecule_pref_name>  (416) 
nan

>  <# Known Targets>  (416) 
nan

>  <Known Targets>  (416) 
nan

>  <smiles>  (416) 
CCC[C@@]1(O)[C@H](C)O[C@@H](O[C@H]2[C@H](C)[C@@H](O[C@@H]3O[C@H](C)C[C@H](N(C)C)[C@H]3O)[C@](C)(O)C[C@@H](C)CN[C@H](C)[C@@H](O)[C@](C)(O)[C@@H](CC)OC(=O)[C@@H]2C)C[C@@]1(C)OC

$$$$

     RDKit          2D

 54 56  0  0  0  0  0  0  0  0999 V2000
    7.8705   -2.5981    0.0000 C   0  0  0  0  0  0  0  0  0  0  0  0
    7.1205   -1.2990    0.0000 C   0  0  0  0  0  0  0  0  0  0  0  0
    5.6205   -1.2990    0.0000 C   0  0  0  0  0  0  0  0  0  0  0  0
    4.8705    0.0000    0.0000 N   0  0  0  0  0  0  0  0  0  0  0  0
    3.3705    0.0000    0.0000 C   0  0  0  0  0  0  0  0  0  0  0  0
    3.0367   -1.4624    0.0000 C   0  0  0  0  0  0  0  0  0  0  0  0
    4.3881   -2.1132    0.0000 C   0  0  0  0  0  0  0  0  0  0  0  0
    2.1015   -2.6351    0.0000 C   0  0  0  0  0  0  0  0  0  0  0  0
    3.0367   -3.8079    0.0000 O   0  0  0  0  0  0  0  0  0  0  0  0
    0.7500   -3.2860    0.0000 C   0  0  0  0  0  0  0  0  0  0  0  0
    1.8496   -4.3062    0.0000 C   0  0  0  0  0  0  0  0  0  0  0  0
    0.2020   -4.6823    0.0000 O   0  0  0  0  0  0  0  0  0  0  0  0
   -0.7500   -3.2860    0.0000 C   0  0  0  0  0  0  0  0  0  0  0  0
   -1.0838   -4.7484    0.0000 C   0  0  0  0  0  0  0  0  0  0  0  0
   -2.5171   -5.1905    0.0000 C   0  0  0  0  0  0  0  0  0  0  0  0
   -2.1015   -2.6351    0.0000 O   0  0  0  0  0  0  0  0  0  0  0  0
   -3.0367   -1.4624    0.0000 C   0  0  0  0  0  0  0  0  0  0  0  0
   -4.3881   -2.1132    0.0000 O   0  0  0  0  0  0  0  0  0  0  0  0
   -3.3705    0.0000    0.0000 C   0  0  0  0  0  0  0  0  0  0  0  0
   -4.6804   -0.3267    0.0000 C   0  0  0  0  0  0  0  0  0  0  0  0
   -3.0367    1.4624    0.0000 C   0  0  0  0  0  0  0  0  0  0  0  0
   -4.3881    2.1132    0.0000 O   0  0  0  0  0  0  0  0  0  0  0  0
   -5.6275    1.2682    0.0000 C   0  0  0  0  0  0  0  0  0  0  0  0
   -6.9790    1.9191    0.0000 C   0  0  0  0  0  0  0  0  0  0  0  0
   -8.2183    1.0741    0.0000 C   0  0  0  0  0  0  0  0  0  0  0  0
   -9.6719    0.7039    0.0000 C   0  0  0  0  0  0  0  0  0  0  0  0
   -8.8352    2.4413    0.0000 O   0  0  0  0  0  0  0  0  0  0  0  0
  -10.3278    2.5907    0.0000 C   0  0  0  0  0  0  0  0  0  0  0  0
   -8.1062   -0.4217    0.0000 C   0  0  0  0  0  0  0  0  0  0  0  0
   -9.3456   -1.2667    0.0000 O   0  0  0  0  0  0  0  0  0  0  0  0
   -6.7548   -1.0725    0.0000 C   0  0  0  0  0  0  0  0  0  0  0  0
   -6.6427   -2.5684    0.0000 C   0  0  0  0  0  0  0  0  0  0  0  0
   -5.5154   -0.2276    0.0000 O   0  0  0  0  0  0  0  0  0  0  0  0
   -2.1015    2.6351    0.0000 C   0  0  0  0  0  0  0  0  0  0  0  0
   -3.0367    3.8079    0.0000 C   0  0  0  0  0  0  0  0  0  0  0  0
   -0.7500    3.2860    0.0000 C   0  0  0  0  0  0  0  0  0  0  0  0
   -1.0838    4.7484    0.0000 O   0  0  0  0  0  0  0  0  0  0  0  0
    0.0158    5.7686    0.0000 C   0  0  0  0  0  0  0  0  0  0  0  0
    1.4492    5.3265    0.0000 O   0  0  0  0  0  0  0  0  0  0  0  0
    2.5487    6.3467    0.0000 C   0  0  0  0  0  0  0  0  0  0  0  0
    3.9821    5.9046    0.0000 C   0  0  0  0  0  0  0  0  0  0  0  0
    2.2150    7.8091    0.0000 C   0  0  0  0  0  0  0  0  0  0  0  0
    0.7816    8.2513    0.0000 C   0  0  0  0  0  0  0  0  0  0  0  0
    0.4478    9.7137    0.0000 N   0  0  0  0  0  0  0  0  0  0  0  0
    1.5474   10.7339    0.0000 C   0  0  0  0  0  0  0  0  0  0  0  0
   -0.9855   10.1558    0.0000 C   0  0  0  0  0  0  0  0  0  0  0  0
   -0.3180    7.2310    0.0000 C   0  0  0  0  0  0  0  0  0  0  0  0
   -1.7513    7.6731    0.0000 O   0  0  0  0  0  0  0  0  0  0  0  0
    0.7500    3.2860    0.0000 C   0  0  0  0  0  0  0  0  0  0  0  0
    0.2020    4.6823    0.0000 C   0  0  0  0  0  0  0  0  0  0  0  0
    1.8496    4.3062    0.0000 O   0  0  0  0  0  0  0  0  0  0  0  0
    2.1015    2.6351    0.0000 C   0  0  0  0  0  0  0  0  0  0  0  0
    3.0367    1.4624    0.0000 C   0  0  0  0  0  0  0  0  0  0  0  0
    4.3881    2.1132    0.0000 C   0  0  0  0  0  0  0  0  0  0  0  0
  1  2  1  0
  2  3  1  0
  3  4  1  0
  5  4  1  6
  5  6  1  0
  6  7  1  6
  6  8  1  0
  8  9  1  1
  8 10  1  0
 10 11  1  1
 10 12  1  0
 10 13  1  0
 13 14  1  1
 14 15  1  0
 13 16  1  0
 16 17  1  0
 17 18  2  0
 17 19  1  0
 19 20  1  6
 19 21  1  0
 21 22  1  1
 23 22  1  6
 23 24  1  0
 24 25  1  0
 25 26  1  1
 25 27  1  0
 27 28  1  0
 25 29  1  0
 29 30  1  6
 29 31  1  0
 31 32  1  1
 31 33  1  0
 21 34  1  0
 34 35  1  6
 34 36  1  0
 36 37  1  1
 38 37  1  1
 38 39  1  0
 39 40  1  0
 40 41  1  1
 40 42  1  0
 42 43  1  0
 43 44  1  1
 44 45  1  0
 44 46  1  0
 43 47  1  0
 47 48  1  6
 36 49  1  0
 49 50  1  1
 49 51  1  0
 49 52  1  0
 52 53  1  0
 53 54  1  1
 53  5  1  0
 33 23  1  0
 47 38  1  0
M  END
>  <ChEMBL_IDs>  (417) 
CHEMBL1697688

>  <target_organism>  (417) 
Homo sapiens,None,Escherichia coli K-12

>  <target_molecule_pref_name>  (417) 
nan

>  <# Known Targets>  (417) 
nan

>  <Known Targets>  (417) 
nan

>  <smiles>  (417) 
CCCN[C@@H]1[C@H](C)[C@@H](O)[C@](C)(O)[C@@H](CC)OC(=O)[C@H](C)[C@@H](O[C@H]2C[C@@](C)(OC)[C@@H](O)[C@H](C)O2)[C@H](C)[C@@H](O[C@@H]2O[C@H](C)C[C@H](N(C)C)[C@H]2O)[C@](C)(O)C[C@H]1C

$$$$

     RDKit          2D

 54 56  0  0  0  0  0  0  0  0999 V2000
    7.8705   -2.5981    0.0000 C   0  0  0  0  0  0  0  0  0  0  0  0
    7.1205   -1.2990    0.0000 C   0  0  0  0  0  0  0  0  0  0  0  0
    5.6205   -1.2990    0.0000 C   0  0  0  0  0  0  0  0  0  0  0  0
    4.8705    0.0000    0.0000 N   0  0  0  0  0  0  0  0  0  0  0  0
    3.3705    0.0000    0.0000 C   0  0  0  0  0  0  0  0  0  0  0  0
    3.0367   -1.4624    0.0000 C   0  0  0  0  0  0  0  0  0  0  0  0
    4.3881   -2.1132    0.0000 C   0  0  0  0  0  0  0  0  0  0  0  0
    2.1015   -2.6351    0.0000 C   0  0  0  0  0  0  0  0  0  0  0  0
    3.0367   -3.8079    0.0000 O   0  0  0  0  0  0  0  0  0  0  0  0
    0.7500   -3.2860    0.0000 C   0  0  0  0  0  0  0  0  0  0  0  0
    1.8496   -4.3062    0.0000 C   0  0  0  0  0  0  0  0  0  0  0  0
    0.2020   -4.6823    0.0000 O   0  0  0  0  0  0  0  0  0  0  0  0
   -0.7500   -3.2860    0.0000 C   0  0  0  0  0  0  0  0  0  0  0  0
   -1.0838   -4.7484    0.0000 C   0  0  0  0  0  0  0  0  0  0  0  0
   -2.5171   -5.1905    0.0000 C   0  0  0  0  0  0  0  0  0  0  0  0
   -2.1015   -2.6351    0.0000 O   0  0  0  0  0  0  0  0  0  0  0  0
   -3.0367   -1.4624    0.0000 C   0  0  0  0  0  0  0  0  0  0  0  0
   -4.3881   -2.1132    0.0000 O   0  0  0  0  0  0  0  0  0  0  0  0
   -3.3705    0.0000    0.0000 C   0  0  0  0  0  0  0  0  0  0  0  0
   -4.6804   -0.3267    0.0000 C   0  0  0  0  0  0  0  0  0  0  0  0
   -3.0367    1.4624    0.0000 C   0  0  0  0  0  0  0  0  0  0  0  0
   -4.3881    2.1132    0.0000 O   0  0  0  0  0  0  0  0  0  0  0  0
   -5.6275    1.2682    0.0000 C   0  0  0  0  0  0  0  0  0  0  0  0
   -6.9790    1.9191    0.0000 C   0  0  0  0  0  0  0  0  0  0  0  0
   -8.2183    1.0741    0.0000 C   0  0  0  0  0  0  0  0  0  0  0  0
   -9.6719    0.7039    0.0000 C   0  0  0  0  0  0  0  0  0  0  0  0
   -8.8352    2.4413    0.0000 O   0  0  0  0  0  0  0  0  0  0  0  0
  -10.3278    2.5907    0.0000 C   0  0  0  0  0  0  0  0  0  0  0  0
   -8.1062   -0.4217    0.0000 C   0  0  0  0  0  0  0  0  0  0  0  0
   -9.3456   -1.2667    0.0000 O   0  0  0  0  0  0  0  0  0  0  0  0
   -6.7548   -1.0725    0.0000 C   0  0  0  0  0  0  0  0  0  0  0  0
   -6.6427   -2.5684    0.0000 C   0  0  0  0  0  0  0  0  0  0  0  0
   -5.5154   -0.2276    0.0000 O   0  0  0  0  0  0  0  0  0  0  0  0
   -2.1015    2.6351    0.0000 C   0  0  0  0  0  0  0  0  0  0  0  0
   -3.0367    3.8079    0.0000 C   0  0  0  0  0  0  0  0  0  0  0  0
   -0.7500    3.2860    0.0000 C   0  0  0  0  0  0  0  0  0  0  0  0
   -1.0838    4.7484    0.0000 O   0  0  0  0  0  0  0  0  0  0  0  0
    0.0158    5.7686    0.0000 C   0  0  0  0  0  0  0  0  0  0  0  0
    1.4492    5.3265    0.0000 O   0  0  0  0  0  0  0  0  0  0  0  0
    2.5487    6.3467    0.0000 C   0  0  0  0  0  0  0  0  0  0  0  0
    3.9821    5.9046    0.0000 C   0  0  0  0  0  0  0  0  0  0  0  0
    2.2150    7.8091    0.0000 C   0  0  0  0  0  0  0  0  0  0  0  0
    0.7816    8.2513    0.0000 C   0  0  0  0  0  0  0  0  0  0  0  0
    0.4478    9.7137    0.0000 N   0  0  0  0  0  0  0  0  0  0  0  0
    1.5474   10.7339    0.0000 C   0  0  0  0  0  0  0  0  0  0  0  0
   -0.9855   10.1558    0.0000 C   0  0  0  0  0  0  0  0  0  0  0  0
   -0.3180    7.2310    0.0000 C   0  0  0  0  0  0  0  0  0  0  0  0
   -1.7513    7.6731    0.0000 O   0  0  0  0  0  0  0  0  0  0  0  0
    0.7500    3.2860    0.0000 C   0  0  0  0  0  0  0  0  0  0  0  0
    0.2020    4.6823    0.0000 C   0  0  0  0  0  0  0  0  0  0  0  0
    1.8496    4.3062    0.0000 O   0  0  0  0  0  0  0  0  0  0  0  0
    2.1015    2.6351    0.0000 C   0  0  0  0  0  0  0  0  0  0  0  0
    3.0367    1.4624    0.0000 C   0  0  0  0  0  0  0  0  0  0  0  0
    4.3881    2.1132    0.0000 C   0  0  0  0  0  0  0  0  0  0  0  0
  1  2  1  0
  2  3  1  0
  3  4  1  0
  5  4  1  6
  5  6  1  0
  6  7  1  6
  6  8  1  0
  8  9  1  1
  8 10  1  0
 10 11  1  1
 10 12  1  0
 10 13  1  0
 13 14  1  1
 14 15  1  0
 13 16  1  0
 16 17  1  0
 17 18  2  0
 17 19  1  0
 19 20  1  6
 19 21  1  0
 21 22  1  1
 22 23  1  0
 23 24  1  0
 24 25  1  0
 25 26  1  0
 25 27  1  0
 27 28  1  0
 25 29  1  0
 29 30  1  0
 29 31  1  0
 31 32  1  0
 31 33  1  0
 21 34  1  0
 34 35  1  6
 34 36  1  0
 36 37  1  1
 37 38  1  0
 38 39  1  0
 39 40  1  0
 40 41  1  0
 40 42  1  0
 42 43  1  0
 43 44  1  0
 44 45  1  0
 44 46  1  0
 43 47  1  0
 47 48  1  0
 36 49  1  0
 49 50  1  1
 49 51  1  0
 49 52  1  0
 52 53  1  0
 53 54  1  1
 53  5  1  0
 33 23  1  0
 47 38  1  0
M  END
>  <ChEMBL_IDs>  (418) 
CHEMBL419922

>  <target_organism>  (418) 
Rattus norvegicus

>  <target_molecule_pref_name>  (418) 
nan

>  <# Known Targets>  (418) 
nan

>  <Known Targets>  (418) 
nan

>  <smiles>  (418) 
CCCN[C@@H]1[C@H](C)[C@@H](O)[C@](C)(O)[C@@H](CC)OC(=O)[C@H](C)[C@@H](OC2CC(C)(OC)C(O)C(C)O2)[C@H](C)[C@@H](OC2OC(C)CC(N(C)C)C2O)[C@](C)(O)C[C@H]1C

$$$$

     RDKit          2D

 54 56  0  0  0  0  0  0  0  0999 V2000
    7.3573    1.2990    0.0000 C   0  0  0  0  0  0  0  0  0  0  0  0
    5.8573    1.2990    0.0000 C   0  0  0  0  0  0  0  0  0  0  0  0
    5.1073    0.0000    0.0000 C   0  0  0  0  0  0  0  0  0  0  0  0
    3.6073    0.0000    0.0000 N   0  0  0  0  0  0  0  0  0  0  0  0
    3.2954    1.4672    0.0000 C   0  0  0  0  0  0  0  0  0  0  0  0
    2.4138    2.6807    0.0000 C   0  0  0  0  0  0  0  0  0  0  0  0
    3.4175    3.7955    0.0000 C   0  0  0  0  0  0  0  0  0  0  0  0
    1.1147    3.4307    0.0000 C   0  0  0  0  0  0  0  0  0  0  0  0
    1.5782    4.8573    0.0000 O   0  0  0  0  0  0  0  0  0  0  0  0
   -0.3771    3.5875    0.0000 C   0  0  0  0  0  0  0  0  0  0  0  0
   -1.3412    4.7366    0.0000 C   0  0  0  0  0  0  0  0  0  0  0  0
    0.3271    4.9120    0.0000 O   0  0  0  0  0  0  0  0  0  0  0  0
   -1.8037    3.1240    0.0000 C   0  0  0  0  0  0  0  0  0  0  0  0
   -2.5537    4.4231    0.0000 C   0  0  0  0  0  0  0  0  0  0  0  0
   -1.8037    5.7221    0.0000 C   0  0  0  0  0  0  0  0  0  0  0  0
   -2.9184    2.1203    0.0000 O   0  0  0  0  0  0  0  0  0  0  0  0
   -3.5285    0.7500    0.0000 C   0  0  0  0  0  0  0  0  0  0  0  0
   -4.9957    1.0619    0.0000 O   0  0  0  0  0  0  0  0  0  0  0  0
   -3.5285   -0.7500    0.0000 C   0  0  0  0  0  0  0  0  0  0  0  0
   -4.8776   -0.7028    0.0000 C   0  0  0  0  0  0  0  0  0  0  0  0
   -2.9184   -2.1203    0.0000 C   0  0  0  0  0  0  0  0  0  0  0  0
   -4.1319   -3.0020    0.0000 O   0  0  0  0  0  0  0  0  0  0  0  0
   -5.5022   -2.3919    0.0000 C   0  0  0  0  0  0  0  0  0  0  0  0
   -6.7157   -3.2736    0.0000 C   0  0  0  0  0  0  0  0  0  0  0  0
   -8.0861   -2.6635    0.0000 C   0  0  0  0  0  0  0  0  0  0  0  0
   -9.5824   -2.5588    0.0000 C   0  0  0  0  0  0  0  0  0  0  0  0
   -8.4489   -4.1189    0.0000 O   0  0  0  0  0  0  0  0  0  0  0  0
   -9.8908   -4.5324    0.0000 C   0  0  0  0  0  0  0  0  0  0  0  0
   -8.2428   -1.1717    0.0000 C   0  0  0  0  0  0  0  0  0  0  0  0
   -9.6132   -0.5616    0.0000 O   0  0  0  0  0  0  0  0  0  0  0  0
   -7.0293   -0.2900    0.0000 C   0  0  0  0  0  0  0  0  0  0  0  0
   -7.1861    1.2018    0.0000 C   0  0  0  0  0  0  0  0  0  0  0  0
   -5.6590   -0.9001    0.0000 O   0  0  0  0  0  0  0  0  0  0  0  0
   -1.8037   -3.1240    0.0000 C   0  0  0  0  0  0  0  0  0  0  0  0
   -2.5537   -4.4231    0.0000 C   0  0  0  0  0  0  0  0  0  0  0  0
   -0.3771   -3.5875    0.0000 C   0  0  0  0  0  0  0  0  0  0  0  0
   -0.5339   -5.0793    0.0000 O   0  0  0  0  0  0  0  0  0  0  0  0
    0.6797   -5.9610    0.0000 C   0  0  0  0  0  0  0  0  0  0  0  0
    0.5229   -7.4528    0.0000 O   0  0  0  0  0  0  0  0  0  0  0  0
    1.7364   -8.3345    0.0000 C   0  0  0  0  0  0  0  0  0  0  0  0
    1.5796   -9.8262    0.0000 C   0  0  0  0  0  0  0  0  0  0  0  0
    3.1067   -7.7244    0.0000 C   0  0  0  0  0  0  0  0  0  0  0  0
    3.2635   -6.2326    0.0000 C   0  0  0  0  0  0  0  0  0  0  0  0
    4.6338   -5.6225    0.0000 N   0  0  0  0  0  0  0  0  0  0  0  0
    5.8474   -6.5041    0.0000 C   0  0  0  0  0  0  0  0  0  0  0  0
    4.7906   -4.1307    0.0000 C   0  0  0  0  0  0  0  0  0  0  0  0
    2.0500   -5.3509    0.0000 C   0  0  0  0  0  0  0  0  0  0  0  0
    2.2293   -4.5742    0.0000 O   0  0  0  0  0  0  0  0  0  0  0  0
    1.1147   -3.4307    0.0000 C   0  0  0  0  0  0  0  0  0  0  0  0
    1.7980   -3.8413    0.0000 C   0  0  0  0  0  0  0  0  0  0  0  0
    0.7013   -4.8726    0.0000 O   0  0  0  0  0  0  0  0  0  0  0  0
    2.4138   -2.6807    0.0000 C   0  0  0  0  0  0  0  0  0  0  0  0
    3.2954   -1.4672    0.0000 C   0  0  0  0  0  0  0  0  0  0  0  0
    4.6658   -2.0773    0.0000 C   0  0  0  0  0  0  0  0  0  0  0  0
  1  2  1  0
  2  3  1  0
  3  4  1  0
  4  5  1  0
  5  6  1  0
  6  7  1  1
  6  8  1  0
  8  9  1  6
  8 10  1  0
 10 11  1  6
 10 12  1  0
 10 13  1  0
 13 14  1  6
 14 15  1  0
 13 16  1  0
 16 17  1  0
 17 18  2  0
 17 19  1  0
 19 20  1  1
 19 21  1  0
 21 22  1  6
 23 22  1  1
 23 24  1  0
 24 25  1  0
 25 26  1  6
 25 27  1  0
 27 28  1  0
 25 29  1  0
 29 30  1  1
 29 31  1  0
 31 32  1  6
 31 33  1  0
 21 34  1  0
 34 35  1  1
 34 36  1  0
 36 37  1  6
 38 37  1  1
 38 39  1  0
 39 40  1  0
 40 41  1  1
 40 42  1  0
 42 43  1  0
 43 44  1  1
 44 45  1  0
 44 46  1  0
 43 47  1  0
 47 48  1  6
 36 49  1  0
 49 50  1  6
 49 51  1  0
 49 52  1  0
 52 53  1  0
 53 54  1  6
 53  4  1  0
 33 23  1  0
 47 38  1  0
M  END
>  <ChEMBL_IDs>  (419) 
CHEMBL2107342

>  <target_organism>  (419) 
Plasmodium falciparum

>  <target_molecule_pref_name>  (419) 
nan

>  <# Known Targets>  (419) 
nan

>  <Known Targets>  (419) 
nan

>  <smiles>  (419) 
CCCN1C[C@H](C)[C@@H](O)[C@](C)(O)[C@@H](CC)OC(=O)[C@H](C)[C@@H](O[C@H]2C[C@@](C)(OC)[C@@H](O)[C@H](C)O2)[C@H](C)[C@@H](O[C@@H]2O[C@H](C)C[C@H](N(C)C)[C@H]2O)[C@](C)(O)C[C@H]1C

$$$$

     RDKit          2D

 54 56  0  0  0  0  0  0  0  0999 V2000
    5.6205   -1.2990    0.0000 C   0  0  0  0  0  0  0  0  0  0  0  0
    4.8705    0.0000    0.0000 C   0  0  0  0  0  0  0  0  0  0  0  0
    3.3705    0.0000    0.0000 C   0  0  0  0  0  0  0  0  0  0  0  0
    3.0367   -1.4624    0.0000 O   0  0  0  0  0  0  0  0  0  0  0  0
    2.1015   -2.6351    0.0000 C   0  0  0  0  0  0  0  0  0  0  0  0
    3.0367   -3.8079    0.0000 O   0  0  0  0  0  0  0  0  0  0  0  0
    0.7500   -3.2860    0.0000 C   0  0  0  0  0  0  0  0  0  0  0  0
    1.3600   -4.4903    0.0000 C   0  0  0  0  0  0  0  0  0  0  0  0
   -0.7500   -3.2860    0.0000 C   0  0  0  0  0  0  0  0  0  0  0  0
   -1.0838   -4.7484    0.0000 O   0  0  0  0  0  0  0  0  0  0  0  0
    0.0158   -5.7686    0.0000 C   0  0  0  0  0  0  0  0  0  0  0  0
   -0.3180   -7.2310    0.0000 C   0  0  0  0  0  0  0  0  0  0  0  0
    0.7816   -8.2513    0.0000 C   0  0  0  0  0  0  0  0  0  0  0  0
    1.4659   -9.5861    0.0000 C   0  0  0  0  0  0  0  0  0  0  0  0
   -0.4141   -9.1570    0.0000 O   0  0  0  0  0  0  0  0  0  0  0  0
   -0.2276  -10.6453    0.0000 C   0  0  0  0  0  0  0  0  0  0  0  0
    2.2150   -7.8091    0.0000 C   0  0  0  0  0  0  0  0  0  0  0  0
    3.3145   -8.8294    0.0000 O   0  0  0  0  0  0  0  0  0  0  0  0
    2.5487   -6.3467    0.0000 C   0  0  0  0  0  0  0  0  0  0  0  0
    3.9821   -5.9046    0.0000 C   0  0  0  0  0  0  0  0  0  0  0  0
    1.4492   -5.3265    0.0000 O   0  0  0  0  0  0  0  0  0  0  0  0
   -2.1015   -2.6351    0.0000 C   0  0  0  0  0  0  0  0  0  0  0  0
   -3.0367   -3.8079    0.0000 C   0  0  0  0  0  0  0  0  0  0  0  0
   -3.0367   -1.4624    0.0000 C   0  0  0  0  0  0  0  0  0  0  0  0
   -4.3881   -2.1132    0.0000 O   0  0  0  0  0  0  0  0  0  0  0  0
   -5.6275   -1.2682    0.0000 C   0  0  0  0  0  0  0  0  0  0  0  0
   -5.5154    0.2276    0.0000 O   0  0  0  0  0  0  0  0  0  0  0  0
   -6.7548    1.0725    0.0000 C   0  0  0  0  0  0  0  0  0  0  0  0
   -6.6427    2.5684    0.0000 C   0  0  0  0  0  0  0  0  0  0  0  0
   -8.1062    0.4217    0.0000 C   0  0  0  0  0  0  0  0  0  0  0  0
   -8.2183   -1.0741    0.0000 C   0  0  0  0  0  0  0  0  0  0  0  0
   -9.5698   -1.7249    0.0000 N   0  0  0  0  0  0  0  0  0  0  0  0
  -10.8091   -0.8799    0.0000 C   0  0  0  0  0  0  0  0  0  0  0  0
   -9.6819   -3.2207    0.0000 C   0  0  0  0  0  0  0  0  0  0  0  0
   -6.9790   -1.9191    0.0000 C   0  0  0  0  0  0  0  0  0  0  0  0
   -7.0910   -3.4149    0.0000 O   0  0  0  0  0  0  0  0  0  0  0  0
   -3.3705    0.0000    0.0000 C   0  0  0  0  0  0  0  0  0  0  0  0
   -4.6098   -0.8450    0.0000 C   0  0  0  0  0  0  0  0  0  0  0  0
   -4.6098    0.8450    0.0000 O   0  0  0  0  0  0  0  0  0  0  0  0
   -3.0367    1.4624    0.0000 C   0  0  0  0  0  0  0  0  0  0  0  0
   -2.1015    2.6351    0.0000 C   0  0  0  0  0  0  0  0  0  0  0  0
   -3.0367    3.8079    0.0000 C   0  0  0  0  0  0  0  0  0  0  0  0
   -0.7500    3.2860    0.0000 C   0  0  0  0  0  0  0  0  0  0  0  0
   -1.0838    4.7484    0.0000 N   0  0  0  0  0  0  0  0  0  0  0  0
    0.0158    5.7686    0.0000 C   0  0  0  0  0  0  0  0  0  0  0  0
   -0.3180    7.2310    0.0000 C   0  0  0  0  0  0  0  0  0  0  0  0
    1.4924    5.5045    0.0000 C   0  0  0  0  0  0  0  0  0  0  0  0
    0.7500    3.2860    0.0000 C   0  0  0  0  0  0  0  0  0  0  0  0
    1.2596    4.6968    0.0000 C   0  0  0  0  0  0  0  0  0  0  0  0
    2.1015    2.6351    0.0000 C   0  0  0  0  0  0  0  0  0  0  0  0
    3.0367    3.8079    0.0000 O   0  0  0  0  0  0  0  0  0  0  0  0
    3.0367    1.4624    0.0000 C   0  0  0  0  0  0  0  0  0  0  0  0
    3.7867    2.7614    0.0000 C   0  0  0  0  0  0  0  0  0  0  0  0
    4.5199    1.2388    0.0000 O   0  0  0  0  0  0  0  0  0  0  0  0
  1  2  1  0
  3  2  1  1
  3  4  1  0
  4  5  1  0
  5  6  2  0
  5  7  1  0
  7  8  1  6
  7  9  1  0
  9 10  1  1
 10 11  1  0
 11 12  1  0
 12 13  1  0
 13 14  1  0
 13 15  1  0
 15 16  1  0
 13 17  1  0
 17 18  1  0
 17 19  1  0
 19 20  1  0
 19 21  1  0
  9 22  1  0
 22 23  1  6
 22 24  1  0
 24 25  1  1
 25 26  1  0
 26 27  1  0
 27 28  1  0
 28 29  1  0
 28 30  1  0
 30 31  1  0
 31 32  1  0
 32 33  1  0
 32 34  1  0
 31 35  1  0
 35 36  1  0
 24 37  1  0
 37 38  1  1
 37 39  1  0
 37 40  1  0
 40 41  1  0
 41 42  1  1
 41 43  1  0
 43 44  1  6
 44 45  1  0
 45 46  1  0
 45 47  1  0
 43 48  1  0
 48 49  1  6
 48 50  1  0
 50 51  1  1
 50 52  1  0
 52 53  1  1
 52 54  1  0
 52  3  1  0
 21 11  1  0
 35 26  1  0
M  END
>  <ChEMBL_IDs>  (420) 
CHEMBL321506

>  <target_organism>  (420) 
None

>  <target_molecule_pref_name>  (420) 
nan

>  <# Known Targets>  (420) 
nan

>  <Known Targets>  (420) 
nan

>  <smiles>  (420) 
CC[C@H]1OC(=O)[C@H](C)[C@@H](OC2CC(C)(OC)C(O)C(C)O2)[C@H](C)[C@@H](OC2OC(C)CC(N(C)C)C2O)[C@](C)(O)C[C@@H](C)[C@H](NC(C)C)[C@H](C)[C@@H](O)[C@]1(C)O

$$$$

     RDKit          2D

 54 56  0  0  0  0  0  0  0  0999 V2000
    5.8573   -1.2990    0.0000 C   0  0  0  0  0  0  0  0  0  0  0  0
    5.1073    0.0000    0.0000 C   0  0  0  0  0  0  0  0  0  0  0  0
    3.6073    0.0000    0.0000 C   0  0  0  0  0  0  0  0  0  0  0  0
    3.2954    1.4672    0.0000 O   0  0  0  0  0  0  0  0  0  0  0  0
    2.4138    2.6807    0.0000 C   0  0  0  0  0  0  0  0  0  0  0  0
    3.4175    3.7955    0.0000 O   0  0  0  0  0  0  0  0  0  0  0  0
    1.1147    3.4307    0.0000 C   0  0  0  0  0  0  0  0  0  0  0  0
    1.8302    4.5756    0.0000 C   0  0  0  0  0  0  0  0  0  0  0  0
   -0.3771    3.5875    0.0000 C   0  0  0  0  0  0  0  0  0  0  0  0
   -0.5339    5.0793    0.0000 O   0  0  0  0  0  0  0  0  0  0  0  0
    0.6797    5.9610    0.0000 C   0  0  0  0  0  0  0  0  0  0  0  0
    0.5229    7.4528    0.0000 C   0  0  0  0  0  0  0  0  0  0  0  0
    1.7364    8.3345    0.0000 C   0  0  0  0  0  0  0  0  0  0  0  0
    2.5752    9.5780    0.0000 C   0  0  0  0  0  0  0  0  0  0  0  0
    0.6574    9.3764    0.0000 O   0  0  0  0  0  0  0  0  0  0  0  0
    1.0203   10.8319    0.0000 C   0  0  0  0  0  0  0  0  0  0  0  0
    3.1067    7.7244    0.0000 C   0  0  0  0  0  0  0  0  0  0  0  0
    4.3202    8.6060    0.0000 O   0  0  0  0  0  0  0  0  0  0  0  0
    5.6906    7.9959    0.0000 C   0  0  0  0  0  0  0  0  0  0  0  0
    3.2635    6.2326    0.0000 C   0  0  0  0  0  0  0  0  0  0  0  0
    4.6338    5.6225    0.0000 C   0  0  0  0  0  0  0  0  0  0  0  0
    2.0500    5.3509    0.0000 O   0  0  0  0  0  0  0  0  0  0  0  0
   -1.8037    3.1240    0.0000 C   0  0  0  0  0  0  0  0  0  0  0  0
   -2.5537    4.4231    0.0000 C   0  0  0  0  0  0  0  0  0  0  0  0
   -2.9184    2.1203    0.0000 C   0  0  0  0  0  0  0  0  0  0  0  0
   -4.1319    3.0020    0.0000 O   0  0  0  0  0  0  0  0  0  0  0  0
   -5.5022    2.3919    0.0000 C   0  0  0  0  0  0  0  0  0  0  0  0
   -6.7157    3.2736    0.0000 O   0  0  0  0  0  0  0  0  0  0  0  0
   -8.0861    2.6635    0.0000 C   0  0  0  0  0  0  0  0  0  0  0  0
   -9.2996    3.5451    0.0000 C   0  0  0  0  0  0  0  0  0  0  0  0
   -8.2428    1.1717    0.0000 C   0  0  0  0  0  0  0  0  0  0  0  0
   -7.0293    0.2900    0.0000 C   0  0  0  0  0  0  0  0  0  0  0  0
   -7.1861   -1.2018    0.0000 N   0  0  0  0  0  0  0  0  0  0  0  0
   -8.5564   -1.8119    0.0000 C   0  0  0  0  0  0  0  0  0  0  0  0
   -5.9726   -2.0835    0.0000 C   0  0  0  0  0  0  0  0  0  0  0  0
   -5.6590    0.9001    0.0000 C   0  0  0  0  0  0  0  0  0  0  0  0
   -5.0760    0.3564    0.0000 O   0  0  0  0  0  0  0  0  0  0  0  0
   -3.5285    0.7500    0.0000 C   0  0  0  0  0  0  0  0  0  0  0  0
   -4.2257    0.3635    0.0000 C   0  0  0  0  0  0  0  0  0  0  0  0
   -4.5705    1.8290    0.0000 O   0  0  0  0  0  0  0  0  0  0  0  0
   -5.8948    1.1247    0.0000 C   0  0  0  0  0  0  0  0  0  0  0  0
   -3.5285   -0.7500    0.0000 C   0  0  0  0  0  0  0  0  0  0  0  0
   -2.9184   -2.1203    0.0000 C   0  0  0  0  0  0  0  0  0  0  0  0
   -4.1319   -3.0020    0.0000 C   0  0  0  0  0  0  0  0  0  0  0  0
   -1.8037   -3.1240    0.0000 N   0  0  0  0  0  0  0  0  0  0  0  0
   -2.5537   -4.4231    0.0000 C   0  0  0  0  0  0  0  0  0  0  0  0
   -0.3771   -3.5875    0.0000 C   0  0  0  0  0  0  0  0  0  0  0  0
    1.1147   -3.4307    0.0000 C   0  0  0  0  0  0  0  0  0  0  0  0
    1.5782   -4.8573    0.0000 C   0  0  0  0  0  0  0  0  0  0  0  0
    2.4138   -2.6807    0.0000 C   0  0  0  0  0  0  0  0  0  0  0  0
    3.4175   -3.7955    0.0000 O   0  0  0  0  0  0  0  0  0  0  0  0
    3.2954   -1.4672    0.0000 C   0  0  0  0  0  0  0  0  0  0  0  0
    4.7726   -1.2067    0.0000 C   0  0  0  0  0  0  0  0  0  0  0  0
    4.0903   -2.7393    0.0000 O   0  0  0  0  0  0  0  0  0  0  0  0
  1  2  1  0
  3  2  1  6
  3  4  1  0
  4  5  1  0
  5  6  2  0
  5  7  1  0
  7  8  1  1
  7  9  1  0
  9 10  1  6
 11 10  1  1
 11 12  1  0
 12 13  1  0
 13 14  1  6
 13 15  1  0
 15 16  1  0
 13 17  1  0
 17 18  1  1
 18 19  1  0
 17 20  1  0
 20 21  1  1
 20 22  1  0
  9 23  1  0
 23 24  1  1
 23 25  1  0
 25 26  1  6
 27 26  1  1
 27 28  1  0
 28 29  1  0
 29 30  1  1
 29 31  1  0
 31 32  1  0
 32 33  1  6
 33 34  1  0
 33 35  1  0
 32 36  1  0
 36 37  1  6
 25 38  1  0
 38 39  1  6
 38 40  1  0
 40 41  1  0
 38 42  1  0
 42 43  1  0
 43 44  1  6
 43 45  1  0
 45 46  1  0
 45 47  1  0
 47 48  1  0
 48 49  1  1
 48 50  1  0
 50 51  1  6
 50 52  1  0
 52 53  1  6
 52 54  1  0
 52  3  1  0
 22 11  1  0
 36 27  1  0
M  END
>  <ChEMBL_IDs>  (421) 
CHEMBL3038223

>  <target_organism>  (421) 
None

>  <target_molecule_pref_name>  (421) 
nan

>  <# Known Targets>  (421) 
nan

>  <Known Targets>  (421) 
nan

>  <smiles>  (421) 
CC[C@H]1OC(=O)[C@H](C)[C@@H](O[C@H]2C[C@@](C)(OC)[C@@H](OC)[C@@H](C)O2)[C@H](C)[C@@H](O[C@@H]2O[C@H](C)C[C@@H](N(C)C)[C@H]2O)[C@](C)(OC)C[C@@H](C)N(C)C[C@H](C)[C@@H](O)[C@]1(C)O

$$$$

     RDKit          2D

 54 56  0  0  0  0  0  0  0  0999 V2000
    5.8573   -1.2990    0.0000 C   0  0  0  0  0  0  0  0  0  0  0  0
    5.1073    0.0000    0.0000 C   0  0  0  0  0  0  0  0  0  0  0  0
    3.6073    0.0000    0.0000 C   0  0  0  0  0  0  0  0  0  0  0  0
    3.2954    1.4672    0.0000 O   0  0  0  0  0  0  0  0  0  0  0  0
    2.4138    2.6807    0.0000 C   0  0  0  0  0  0  0  0  0  0  0  0
    3.4175    3.7955    0.0000 O   0  0  0  0  0  0  0  0  0  0  0  0
    1.1147    3.4307    0.0000 C   0  0  0  0  0  0  0  0  0  0  0  0
    1.8302    4.5756    0.0000 C   0  0  0  0  0  0  0  0  0  0  0  0
   -0.3771    3.5875    0.0000 C   0  0  0  0  0  0  0  0  0  0  0  0
   -0.5339    5.0793    0.0000 O   0  0  0  0  0  0  0  0  0  0  0  0
    0.6797    5.9610    0.0000 C   0  0  0  0  0  0  0  0  0  0  0  0
    0.5229    7.4528    0.0000 C   0  0  0  0  0  0  0  0  0  0  0  0
    1.7364    8.3345    0.0000 C   0  0  0  0  0  0  0  0  0  0  0  0
    2.5752    9.5780    0.0000 C   0  0  0  0  0  0  0  0  0  0  0  0
    0.6574    9.3764    0.0000 O   0  0  0  0  0  0  0  0  0  0  0  0
    1.0203   10.8319    0.0000 C   0  0  0  0  0  0  0  0  0  0  0  0
    3.1067    7.7244    0.0000 C   0  0  0  0  0  0  0  0  0  0  0  0
    4.3202    8.6060    0.0000 O   0  0  0  0  0  0  0  0  0  0  0  0
    5.6906    7.9959    0.0000 C   0  0  0  0  0  0  0  0  0  0  0  0
    3.2635    6.2326    0.0000 C   0  0  0  0  0  0  0  0  0  0  0  0
    4.6338    5.6225    0.0000 C   0  0  0  0  0  0  0  0  0  0  0  0
    2.0500    5.3509    0.0000 O   0  0  0  0  0  0  0  0  0  0  0  0
   -1.8037    3.1240    0.0000 C   0  0  0  0  0  0  0  0  0  0  0  0
   -2.5537    4.4231    0.0000 C   0  0  0  0  0  0  0  0  0  0  0  0
   -2.9184    2.1203    0.0000 C   0  0  0  0  0  0  0  0  0  0  0  0
   -4.1319    3.0020    0.0000 O   0  0  0  0  0  0  0  0  0  0  0  0
   -5.5022    2.3919    0.0000 C   0  0  0  0  0  0  0  0  0  0  0  0
   -6.7157    3.2736    0.0000 O   0  0  0  0  0  0  0  0  0  0  0  0
   -8.0861    2.6635    0.0000 C   0  0  0  0  0  0  0  0  0  0  0  0
   -9.2996    3.5451    0.0000 C   0  0  0  0  0  0  0  0  0  0  0  0
   -8.2428    1.1717    0.0000 C   0  0  0  0  0  0  0  0  0  0  0  0
   -7.0293    0.2900    0.0000 C   0  0  0  0  0  0  0  0  0  0  0  0
   -7.1861   -1.2018    0.0000 N   0  0  0  0  0  0  0  0  0  0  0  0
   -8.5564   -1.8119    0.0000 C   0  0  0  0  0  0  0  0  0  0  0  0
   -5.9726   -2.0835    0.0000 C   0  0  0  0  0  0  0  0  0  0  0  0
   -5.6590    0.9001    0.0000 C   0  0  0  0  0  0  0  0  0  0  0  0
   -5.0760    0.3564    0.0000 O   0  0  0  0  0  0  0  0  0  0  0  0
   -3.5285    0.7500    0.0000 C   0  0  0  0  0  0  0  0  0  0  0  0
   -4.2257    0.3635    0.0000 C   0  0  0  0  0  0  0  0  0  0  0  0
   -4.5705    1.8290    0.0000 O   0  0  0  0  0  0  0  0  0  0  0  0
   -3.5285   -0.7500    0.0000 C   0  0  0  0  0  0  0  0  0  0  0  0
   -2.9184   -2.1203    0.0000 C   0  0  0  0  0  0  0  0  0  0  0  0
   -4.1319   -3.0020    0.0000 C   0  0  0  0  0  0  0  0  0  0  0  0
   -1.8037   -3.1240    0.0000 N   0  0  0  0  0  0  0  0  0  0  0  0
   -2.5537   -4.4231    0.0000 C   0  0  0  0  0  0  0  0  0  0  0  0
   -0.3771   -3.5875    0.0000 C   0  0  0  0  0  0  0  0  0  0  0  0
    1.1147   -3.4307    0.0000 C   0  0  0  0  0  0  0  0  0  0  0  0
    1.5782   -4.8573    0.0000 C   0  0  0  0  0  0  0  0  0  0  0  0
    2.4138   -2.6807    0.0000 C   0  0  0  0  0  0  0  0  0  0  0  0
    3.4175   -3.7955    0.0000 O   0  0  0  0  0  0  0  0  0  0  0  0
    4.8847   -3.4836    0.0000 C   0  0  0  0  0  0  0  0  0  0  0  0
    3.2954   -1.4672    0.0000 C   0  0  0  0  0  0  0  0  0  0  0  0
    4.7726   -1.2067    0.0000 C   0  0  0  0  0  0  0  0  0  0  0  0
    4.0903   -2.7393    0.0000 O   0  0  0  0  0  0  0  0  0  0  0  0
  1  2  1  0
  3  2  1  6
  3  4  1  0
  4  5  1  0
  5  6  2  0
  5  7  1  0
  7  8  1  1
  7  9  1  0
  9 10  1  6
 11 10  1  1
 11 12  1  0
 12 13  1  0
 13 14  1  6
 13 15  1  0
 15 16  1  0
 13 17  1  0
 17 18  1  1
 18 19  1  0
 17 20  1  0
 20 21  1  1
 20 22  1  0
  9 23  1  0
 23 24  1  1
 23 25  1  0
 25 26  1  6
 27 26  1  1
 27 28  1  0
 28 29  1  0
 29 30  1  1
 29 31  1  0
 31 32  1  0
 32 33  1  6
 33 34  1  0
 33 35  1  0
 32 36  1  0
 36 37  1  6
 25 38  1  0
 38 39  1  6
 38 40  1  0
 38 41  1  0
 41 42  1  0
 42 43  1  6
 42 44  1  0
 44 45  1  0
 44 46  1  0
 46 47  1  0
 47 48  1  1
 47 49  1  0
 49 50  1  6
 50 51  1  0
 49 52  1  0
 52 53  1  6
 52 54  1  0
 52  3  1  0
 22 11  1  0
 36 27  1  0
M  END
>  <ChEMBL_IDs>  (422) 
CHEMBL2368178

>  <target_organism>  (422) 
Homo sapiens

>  <target_molecule_pref_name>  (422) 
nan

>  <# Known Targets>  (422) 
nan

>  <Known Targets>  (422) 
nan

>  <smiles>  (422) 
CC[C@H]1OC(=O)[C@H](C)[C@@H](O[C@H]2C[C@@](C)(OC)[C@@H](OC)[C@@H](C)O2)[C@H](C)[C@@H](O[C@@H]2O[C@H](C)C[C@@H](N(C)C)[C@H]2O)[C@](C)(O)C[C@@H](C)N(C)C[C@H](C)[C@@H](OC)[C@]1(C)O

$$$$

     RDKit          2D

 54 56  0  0  0  0  0  0  0  0999 V2000
    5.8573   -1.2990    0.0000 C   0  0  0  0  0  0  0  0  0  0  0  0
    5.1073    0.0000    0.0000 C   0  0  0  0  0  0  0  0  0  0  0  0
    3.6073    0.0000    0.0000 C   0  0  0  0  0  0  0  0  0  0  0  0
    3.2954    1.4672    0.0000 O   0  0  0  0  0  0  0  0  0  0  0  0
    2.4138    2.6807    0.0000 C   0  0  0  0  0  0  0  0  0  0  0  0
    3.4175    3.7955    0.0000 O   0  0  0  0  0  0  0  0  0  0  0  0
    1.1147    3.4307    0.0000 C   0  0  0  0  0  0  0  0  0  0  0  0
    1.8302    4.5756    0.0000 C   0  0  0  0  0  0  0  0  0  0  0  0
   -0.3771    3.5875    0.0000 C   0  0  0  0  0  0  0  0  0  0  0  0
   -0.5339    5.0793    0.0000 O   0  0  0  0  0  0  0  0  0  0  0  0
    0.6797    5.9610    0.0000 C   0  0  0  0  0  0  0  0  0  0  0  0
    0.5229    7.4528    0.0000 C   0  0  0  0  0  0  0  0  0  0  0  0
    1.7364    8.3345    0.0000 C   0  0  0  0  0  0  0  0  0  0  0  0
    2.5752    9.5780    0.0000 C   0  0  0  0  0  0  0  0  0  0  0  0
    0.6574    9.3764    0.0000 O   0  0  0  0  0  0  0  0  0  0  0  0
    1.0203   10.8319    0.0000 C   0  0  0  0  0  0  0  0  0  0  0  0
    3.1067    7.7244    0.0000 C   0  0  0  0  0  0  0  0  0  0  0  0
    4.3202    8.6060    0.0000 O   0  0  0  0  0  0  0  0  0  0  0  0
    3.2635    6.2326    0.0000 C   0  0  0  0  0  0  0  0  0  0  0  0
    4.6338    5.6225    0.0000 C   0  0  0  0  0  0  0  0  0  0  0  0
    2.0500    5.3509    0.0000 O   0  0  0  0  0  0  0  0  0  0  0  0
   -1.8037    3.1240    0.0000 C   0  0  0  0  0  0  0  0  0  0  0  0
   -2.5537    4.4231    0.0000 C   0  0  0  0  0  0  0  0  0  0  0  0
   -2.9184    2.1203    0.0000 C   0  0  0  0  0  0  0  0  0  0  0  0
   -4.1319    3.0020    0.0000 O   0  0  0  0  0  0  0  0  0  0  0  0
   -5.5022    2.3919    0.0000 C   0  0  0  0  0  0  0  0  0  0  0  0
   -6.7157    3.2736    0.0000 O   0  0  0  0  0  0  0  0  0  0  0  0
   -8.0861    2.6635    0.0000 C   0  0  0  0  0  0  0  0  0  0  0  0
   -9.2996    3.5451    0.0000 C   0  0  0  0  0  0  0  0  0  0  0  0
   -8.2428    1.1717    0.0000 C   0  0  0  0  0  0  0  0  0  0  0  0
   -7.0293    0.2900    0.0000 C   0  0  0  0  0  0  0  0  0  0  0  0
   -7.1861   -1.2018    0.0000 N   0  0  0  0  0  0  0  0  0  0  0  0
   -8.5564   -1.8119    0.0000 C   0  0  0  0  0  0  0  0  0  0  0  0
   -5.9726   -2.0835    0.0000 C   0  0  0  0  0  0  0  0  0  0  0  0
   -5.6590    0.9001    0.0000 C   0  0  0  0  0  0  0  0  0  0  0  0
   -5.0760    0.3564    0.0000 O   0  0  0  0  0  0  0  0  0  0  0  0
   -3.5285    0.7500    0.0000 C   0  0  0  0  0  0  0  0  0  0  0  0
   -4.2257    0.3635    0.0000 C   0  0  0  0  0  0  0  0  0  0  0  0
   -4.5705    1.8290    0.0000 O   0  0  0  0  0  0  0  0  0  0  0  0
   -5.8948    1.1247    0.0000 C   0  0  0  0  0  0  0  0  0  0  0  0
   -3.5285   -0.7500    0.0000 C   0  0  0  0  0  0  0  0  0  0  0  0
   -2.9184   -2.1203    0.0000 C   0  0  0  0  0  0  0  0  0  0  0  0
   -4.1319   -3.0020    0.0000 C   0  0  0  0  0  0  0  0  0  0  0  0
   -1.8037   -3.1240    0.0000 C   0  0  0  0  0  0  0  0  0  0  0  0
   -0.3771   -3.5875    0.0000 N   0  0  0  0  0  0  0  0  0  0  0  0
   -0.5339   -5.0793    0.0000 C   0  0  0  0  0  0  0  0  0  0  0  0
    1.1147   -3.4307    0.0000 C   0  0  0  0  0  0  0  0  0  0  0  0
    1.5782   -4.8573    0.0000 C   0  0  0  0  0  0  0  0  0  0  0  0
    2.4138   -2.6807    0.0000 C   0  0  0  0  0  0  0  0  0  0  0  0
    3.4175   -3.7955    0.0000 O   0  0  0  0  0  0  0  0  0  0  0  0
    4.8847   -3.4836    0.0000 C   0  0  0  0  0  0  0  0  0  0  0  0
    3.2954   -1.4672    0.0000 C   0  0  0  0  0  0  0  0  0  0  0  0
    4.7726   -1.2067    0.0000 C   0  0  0  0  0  0  0  0  0  0  0  0
    4.0903   -2.7393    0.0000 O   0  0  0  0  0  0  0  0  0  0  0  0
  1  2  1  0
  3  2  1  6
  3  4  1  0
  4  5  1  0
  5  6  2  0
  5  7  1  0
  7  8  1  1
  7  9  1  0
  9 10  1  6
 11 10  1  1
 11 12  1  0
 12 13  1  0
 13 14  1  6
 13 15  1  0
 15 16  1  0
 13 17  1  0
 17 18  1  1
 17 19  1  0
 19 20  1  1
 19 21  1  0
  9 22  1  0
 22 23  1  1
 22 24  1  0
 24 25  1  6
 26 25  1  1
 26 27  1  0
 27 28  1  0
 28 29  1  1
 28 30  1  0
 30 31  1  0
 31 32  1  6
 32 33  1  0
 32 34  1  0
 31 35  1  0
 35 36  1  6
 24 37  1  0
 37 38  1  6
 37 39  1  0
 39 40  1  0
 37 41  1  0
 41 42  1  0
 42 43  1  6
 42 44  1  0
 44 45  1  0
 45 46  1  0
 45 47  1  0
 47 48  1  1
 47 49  1  0
 49 50  1  6
 50 51  1  0
 49 52  1  0
 52 53  1  6
 52 54  1  0
 52  3  1  0
 21 11  1  0
 35 26  1  0
M  END
>  <ChEMBL_IDs>  (423) 
CHEMBL3038226

>  <target_organism>  (423) 
None

>  <target_molecule_pref_name>  (423) 
nan

>  <# Known Targets>  (423) 
nan

>  <Known Targets>  (423) 
nan

>  <smiles>  (423) 
CC[C@H]1OC(=O)[C@H](C)[C@@H](O[C@H]2C[C@@](C)(OC)[C@@H](O)[C@@H](C)O2)[C@H](C)[C@@H](O[C@@H]2O[C@H](C)C[C@@H](N(C)C)[C@H]2O)[C@](C)(OC)C[C@@H](C)CN(C)[C@H](C)[C@@H](OC)[C@]1(C)O

$$$$

     RDKit          2D

 54 56  0  0  0  0  0  0  0  0999 V2000
    5.8573   -1.2990    0.0000 C   0  0  0  0  0  0  0  0  0  0  0  0
    5.1073    0.0000    0.0000 C   0  0  0  0  0  0  0  0  0  0  0  0
    3.6073    0.0000    0.0000 C   0  0  0  0  0  0  0  0  0  0  0  0
    3.2954    1.4672    0.0000 O   0  0  0  0  0  0  0  0  0  0  0  0
    2.4138    2.6807    0.0000 C   0  0  0  0  0  0  0  0  0  0  0  0
    3.4175    3.7955    0.0000 O   0  0  0  0  0  0  0  0  0  0  0  0
    1.1147    3.4307    0.0000 C   0  0  0  0  0  0  0  0  0  0  0  0
    1.8302    4.5756    0.0000 C   0  0  0  0  0  0  0  0  0  0  0  0
   -0.3771    3.5875    0.0000 C   0  0  0  0  0  0  0  0  0  0  0  0
   -0.5339    5.0793    0.0000 O   0  0  0  0  0  0  0  0  0  0  0  0
    0.6797    5.9610    0.0000 C   0  0  0  0  0  0  0  0  0  0  0  0
    0.5229    7.4528    0.0000 C   0  0  0  0  0  0  0  0  0  0  0  0
    1.7364    8.3345    0.0000 C   0  0  0  0  0  0  0  0  0  0  0  0
    2.5752    9.5780    0.0000 C   0  0  0  0  0  0  0  0  0  0  0  0
    0.6574    9.3764    0.0000 O   0  0  0  0  0  0  0  0  0  0  0  0
    1.0203   10.8319    0.0000 C   0  0  0  0  0  0  0  0  0  0  0  0
    3.1067    7.7244    0.0000 C   0  0  0  0  0  0  0  0  0  0  0  0
    4.3202    8.6060    0.0000 O   0  0  0  0  0  0  0  0  0  0  0  0
    5.6906    7.9959    0.0000 C   0  0  0  0  0  0  0  0  0  0  0  0
    3.2635    6.2326    0.0000 C   0  0  0  0  0  0  0  0  0  0  0  0
    4.6338    5.6225    0.0000 C   0  0  0  0  0  0  0  0  0  0  0  0
    2.0500    5.3509    0.0000 O   0  0  0  0  0  0  0  0  0  0  0  0
   -1.8037    3.1240    0.0000 C   0  0  0  0  0  0  0  0  0  0  0  0
   -2.5537    4.4231    0.0000 C   0  0  0  0  0  0  0  0  0  0  0  0
   -2.9184    2.1203    0.0000 C   0  0  0  0  0  0  0  0  0  0  0  0
   -4.1319    3.0020    0.0000 O   0  0  0  0  0  0  0  0  0  0  0  0
   -5.5022    2.3919    0.0000 C   0  0  0  0  0  0  0  0  0  0  0  0
   -6.7157    3.2736    0.0000 O   0  0  0  0  0  0  0  0  0  0  0  0
   -8.0861    2.6635    0.0000 C   0  0  0  0  0  0  0  0  0  0  0  0
   -9.2996    3.5451    0.0000 C   0  0  0  0  0  0  0  0  0  0  0  0
   -8.2428    1.1717    0.0000 C   0  0  0  0  0  0  0  0  0  0  0  0
   -7.0293    0.2900    0.0000 C   0  0  0  0  0  0  0  0  0  0  0  0
   -7.1861   -1.2018    0.0000 N   0  0  0  0  0  0  0  0  0  0  0  0
   -8.5564   -1.8119    0.0000 C   0  0  0  0  0  0  0  0  0  0  0  0
   -5.9726   -2.0835    0.0000 C   0  0  0  0  0  0  0  0  0  0  0  0
   -5.6590    0.9001    0.0000 C   0  0  0  0  0  0  0  0  0  0  0  0
   -5.0760    0.3564    0.0000 O   0  0  0  0  0  0  0  0  0  0  0  0
   -3.5285    0.7500    0.0000 C   0  0  0  0  0  0  0  0  0  0  0  0
   -4.2257    0.3635    0.0000 C   0  0  0  0  0  0  0  0  0  0  0  0
   -4.5705    1.8290    0.0000 O   0  0  0  0  0  0  0  0  0  0  0  0
   -3.5285   -0.7500    0.0000 C   0  0  0  0  0  0  0  0  0  0  0  0
   -2.9184   -2.1203    0.0000 C   0  0  0  0  0  0  0  0  0  0  0  0
   -4.1319   -3.0020    0.0000 C   0  0  0  0  0  0  0  0  0  0  0  0
   -1.8037   -3.1240    0.0000 N   0  0  0  0  0  0  0  0  0  0  0  0
   -2.5537   -4.4231    0.0000 C   0  0  0  0  0  0  0  0  0  0  0  0
   -0.3771   -3.5875    0.0000 C   0  0  0  0  0  0  0  0  0  0  0  0
    1.1147   -3.4307    0.0000 C   0  0  0  0  0  0  0  0  0  0  0  0
    1.5782   -4.8573    0.0000 C   0  0  0  0  0  0  0  0  0  0  0  0
    2.4138   -2.6807    0.0000 C   0  0  0  0  0  0  0  0  0  0  0  0
    3.4175   -3.7955    0.0000 O   0  0  0  0  0  0  0  0  0  0  0  0
    3.2954   -1.4672    0.0000 C   0  0  0  0  0  0  0  0  0  0  0  0
    4.7726   -1.2067    0.0000 C   0  0  0  0  0  0  0  0  0  0  0  0
    4.0903   -2.7393    0.0000 O   0  0  0  0  0  0  0  0  0  0  0  0
    5.5894   -2.6869    0.0000 C   0  0  0  0  0  0  0  0  0  0  0  0
  1  2  1  0
  3  2  1  6
  3  4  1  0
  4  5  1  0
  5  6  2  0
  5  7  1  0
  7  8  1  1
  7  9  1  0
  9 10  1  6
 11 10  1  1
 11 12  1  0
 12 13  1  0
 13 14  1  6
 13 15  1  0
 15 16  1  0
 13 17  1  0
 17 18  1  1
 18 19  1  0
 17 20  1  0
 20 21  1  1
 20 22  1  0
  9 23  1  0
 23 24  1  1
 23 25  1  0
 25 26  1  6
 27 26  1  1
 27 28  1  0
 28 29  1  0
 29 30  1  1
 29 31  1  0
 31 32  1  0
 32 33  1  6
 33 34  1  0
 33 35  1  0
 32 36  1  0
 36 37  1  6
 25 38  1  0
 38 39  1  6
 38 40  1  0
 38 41  1  0
 41 42  1  0
 42 43  1  6
 42 44  1  0
 44 45  1  0
 44 46  1  0
 46 47  1  0
 47 48  1  1
 47 49  1  0
 49 50  1  6
 49 51  1  0
 51 52  1  6
 51 53  1  0
 53 54  1  0
 51  3  1  0
 22 11  1  0
 36 27  1  0
M  END
>  <ChEMBL_IDs>  (424) 
CHEMBL2368179

>  <target_organism>  (424) 
Homo sapiens

>  <target_molecule_pref_name>  (424) 
nan

>  <# Known Targets>  (424) 
nan

>  <Known Targets>  (424) 
nan

>  <smiles>  (424) 
CC[C@H]1OC(=O)[C@H](C)[C@@H](O[C@H]2C[C@@](C)(OC)[C@@H](OC)[C@@H](C)O2)[C@H](C)[C@@H](O[C@@H]2O[C@H](C)C[C@@H](N(C)C)[C@H]2O)[C@](C)(O)C[C@@H](C)N(C)C[C@H](C)[C@@H](O)[C@]1(C)OC

$$$$

     RDKit          2D

 54 56  0  0  0  0  0  0  0  0999 V2000
    5.8573   -1.2990    0.0000 C   0  0  0  0  0  0  0  0  0  0  0  0
    5.1073    0.0000    0.0000 C   0  0  0  0  0  0  0  0  0  0  0  0
    3.6073    0.0000    0.0000 C   0  0  0  0  0  0  0  0  0  0  0  0
    3.2954    1.4672    0.0000 O   0  0  0  0  0  0  0  0  0  0  0  0
    2.4138    2.6807    0.0000 C   0  0  0  0  0  0  0  0  0  0  0  0
    3.4175    3.7955    0.0000 O   0  0  0  0  0  0  0  0  0  0  0  0
    1.1147    3.4307    0.0000 C   0  0  0  0  0  0  0  0  0  0  0  0
    1.8302    4.5756    0.0000 C   0  0  0  0  0  0  0  0  0  0  0  0
   -0.3771    3.5875    0.0000 C   0  0  0  0  0  0  0  0  0  0  0  0
   -0.5339    5.0793    0.0000 O   0  0  0  0  0  0  0  0  0  0  0  0
    0.6797    5.9610    0.0000 C   0  0  0  0  0  0  0  0  0  0  0  0
    0.5229    7.4528    0.0000 C   0  0  0  0  0  0  0  0  0  0  0  0
    1.7364    8.3345    0.0000 C   0  0  0  0  0  0  0  0  0  0  0  0
    2.5752    9.5780    0.0000 C   0  0  0  0  0  0  0  0  0  0  0  0
    0.6574    9.3764    0.0000 O   0  0  0  0  0  0  0  0  0  0  0  0
    1.0203   10.8319    0.0000 C   0  0  0  0  0  0  0  0  0  0  0  0
    3.1067    7.7244    0.0000 C   0  0  0  0  0  0  0  0  0  0  0  0
    4.3202    8.6060    0.0000 O   0  0  0  0  0  0  0  0  0  0  0  0
    3.2635    6.2326    0.0000 C   0  0  0  0  0  0  0  0  0  0  0  0
    4.6338    5.6225    0.0000 C   0  0  0  0  0  0  0  0  0  0  0  0
    2.0500    5.3509    0.0000 O   0  0  0  0  0  0  0  0  0  0  0  0
   -1.8037    3.1240    0.0000 C   0  0  0  0  0  0  0  0  0  0  0  0
   -2.5537    4.4231    0.0000 C   0  0  0  0  0  0  0  0  0  0  0  0
   -2.9184    2.1203    0.0000 C   0  0  0  0  0  0  0  0  0  0  0  0
   -4.1319    3.0020    0.0000 O   0  0  0  0  0  0  0  0  0  0  0  0
   -5.5022    2.3919    0.0000 C   0  0  0  0  0  0  0  0  0  0  0  0
   -6.7157    3.2736    0.0000 O   0  0  0  0  0  0  0  0  0  0  0  0
   -8.0861    2.6635    0.0000 C   0  0  0  0  0  0  0  0  0  0  0  0
   -9.2996    3.5451    0.0000 C   0  0  0  0  0  0  0  0  0  0  0  0
   -8.2428    1.1717    0.0000 C   0  0  0  0  0  0  0  0  0  0  0  0
   -7.0293    0.2900    0.0000 C   0  0  0  0  0  0  0  0  0  0  0  0
   -7.1861   -1.2018    0.0000 N   0  0  0  0  0  0  0  0  0  0  0  0
   -8.5564   -1.8119    0.0000 C   0  0  0  0  0  0  0  0  0  0  0  0
   -5.9726   -2.0835    0.0000 C   0  0  0  0  0  0  0  0  0  0  0  0
   -5.6590    0.9001    0.0000 C   0  0  0  0  0  0  0  0  0  0  0  0
   -5.0760    0.3564    0.0000 O   0  0  0  0  0  0  0  0  0  0  0  0
   -3.5285    0.7500    0.0000 C   0  0  0  0  0  0  0  0  0  0  0  0
   -4.2257    0.3635    0.0000 C   0  0  0  0  0  0  0  0  0  0  0  0
   -4.5705    1.8290    0.0000 O   0  0  0  0  0  0  0  0  0  0  0  0
   -5.8948    1.1247    0.0000 C   0  0  0  0  0  0  0  0  0  0  0  0
   -3.5285   -0.7500    0.0000 C   0  0  0  0  0  0  0  0  0  0  0  0
   -2.9184   -2.1203    0.0000 C   0  0  0  0  0  0  0  0  0  0  0  0
   -4.1319   -3.0020    0.0000 C   0  0  0  0  0  0  0  0  0  0  0  0
   -1.8037   -3.1240    0.0000 C   0  0  0  0  0  0  0  0  0  0  0  0
   -0.3771   -3.5875    0.0000 N   0  0  0  0  0  0  0  0  0  0  0  0
   -0.5339   -5.0793    0.0000 C   0  0  0  0  0  0  0  0  0  0  0  0
    1.1147   -3.4307    0.0000 C   0  0  0  0  0  0  0  0  0  0  0  0
    1.5782   -4.8573    0.0000 C   0  0  0  0  0  0  0  0  0  0  0  0
    2.4138   -2.6807    0.0000 C   0  0  0  0  0  0  0  0  0  0  0  0
    3.4175   -3.7955    0.0000 O   0  0  0  0  0  0  0  0  0  0  0  0
    3.2954   -1.4672    0.0000 C   0  0  0  0  0  0  0  0  0  0  0  0
    4.7726   -1.2067    0.0000 C   0  0  0  0  0  0  0  0  0  0  0  0
    4.0903   -2.7393    0.0000 O   0  0  0  0  0  0  0  0  0  0  0  0
    5.5894   -2.6869    0.0000 C   0  0  0  0  0  0  0  0  0  0  0  0
  1  2  1  0
  3  2  1  6
  3  4  1  0
  4  5  1  0
  5  6  2  0
  5  7  1  0
  7  8  1  1
  7  9  1  0
  9 10  1  6
 11 10  1  1
 11 12  1  0
 12 13  1  0
 13 14  1  6
 13 15  1  0
 15 16  1  0
 13 17  1  0
 17 18  1  1
 17 19  1  0
 19 20  1  1
 19 21  1  0
  9 22  1  0
 22 23  1  1
 22 24  1  0
 24 25  1  6
 26 25  1  1
 26 27  1  0
 27 28  1  0
 28 29  1  1
 28 30  1  0
 30 31  1  0
 31 32  1  6
 32 33  1  0
 32 34  1  0
 31 35  1  0
 35 36  1  6
 24 37  1  0
 37 38  1  6
 37 39  1  0
 39 40  1  0
 37 41  1  0
 41 42  1  0
 42 43  1  6
 42 44  1  0
 44 45  1  0
 45 46  1  0
 45 47  1  0
 47 48  1  1
 47 49  1  0
 49 50  1  6
 49 51  1  0
 51 52  1  6
 51 53  1  0
 53 54  1  0
 51  3  1  0
 21 11  1  0
 35 26  1  0
M  END
>  <ChEMBL_IDs>  (425) 
CHEMBL3038224

>  <target_organism>  (425) 
None

>  <target_molecule_pref_name>  (425) 
nan

>  <# Known Targets>  (425) 
nan

>  <Known Targets>  (425) 
nan

>  <smiles>  (425) 
CC[C@H]1OC(=O)[C@H](C)[C@@H](O[C@H]2C[C@@](C)(OC)[C@@H](O)[C@@H](C)O2)[C@H](C)[C@@H](O[C@@H]2O[C@H](C)C[C@@H](N(C)C)[C@H]2O)[C@](C)(OC)C[C@@H](C)CN(C)[C@H](C)[C@@H](O)[C@]1(C)OC

$$$$

     RDKit          2D

 54 56  0  0  0  0  0  0  0  0999 V2000
    5.8573   -1.2990    0.0000 C   0  0  0  0  0  0  0  0  0  0  0  0
    5.1073    0.0000    0.0000 C   0  0  0  0  0  0  0  0  0  0  0  0
    3.6073    0.0000    0.0000 C   0  0  0  0  0  0  0  0  0  0  0  0
    3.2954    1.4672    0.0000 O   0  0  0  0  0  0  0  0  0  0  0  0
    2.4138    2.6807    0.0000 C   0  0  0  0  0  0  0  0  0  0  0  0
    3.4175    3.7955    0.0000 O   0  0  0  0  0  0  0  0  0  0  0  0
    1.1147    3.4307    0.0000 C   0  0  0  0  0  0  0  0  0  0  0  0
    1.8302    4.5756    0.0000 C   0  0  0  0  0  0  0  0  0  0  0  0
   -0.3771    3.5875    0.0000 C   0  0  0  0  0  0  0  0  0  0  0  0
   -0.5339    5.0793    0.0000 O   0  0  0  0  0  0  0  0  0  0  0  0
    0.6797    5.9610    0.0000 C   0  0  0  0  0  0  0  0  0  0  0  0
    0.5229    7.4528    0.0000 C   0  0  0  0  0  0  0  0  0  0  0  0
    1.7364    8.3345    0.0000 C   0  0  0  0  0  0  0  0  0  0  0  0
    2.5752    9.5780    0.0000 C   0  0  0  0  0  0  0  0  0  0  0  0
    0.6574    9.3764    0.0000 O   0  0  0  0  0  0  0  0  0  0  0  0
    1.0203   10.8319    0.0000 C   0  0  0  0  0  0  0  0  0  0  0  0
    3.1067    7.7244    0.0000 C   0  0  0  0  0  0  0  0  0  0  0  0
    4.3202    8.6060    0.0000 O   0  0  0  0  0  0  0  0  0  0  0  0
    3.2635    6.2326    0.0000 C   0  0  0  0  0  0  0  0  0  0  0  0
    4.6338    5.6225    0.0000 C   0  0  0  0  0  0  0  0  0  0  0  0
    2.0500    5.3509    0.0000 O   0  0  0  0  0  0  0  0  0  0  0  0
   -1.8037    3.1240    0.0000 C   0  0  0  0  0  0  0  0  0  0  0  0
   -2.5537    4.4231    0.0000 C   0  0  0  0  0  0  0  0  0  0  0  0
   -2.9184    2.1203    0.0000 C   0  0  0  0  0  0  0  0  0  0  0  0
   -4.1319    3.0020    0.0000 O   0  0  0  0  0  0  0  0  0  0  0  0
   -5.5022    2.3919    0.0000 C   0  0  0  0  0  0  0  0  0  0  0  0
   -6.7157    3.2736    0.0000 O   0  0  0  0  0  0  0  0  0  0  0  0
   -8.0861    2.6635    0.0000 C   0  0  0  0  0  0  0  0  0  0  0  0
   -9.2996    3.5451    0.0000 C   0  0  0  0  0  0  0  0  0  0  0  0
   -8.2428    1.1717    0.0000 C   0  0  0  0  0  0  0  0  0  0  0  0
   -7.0293    0.2900    0.0000 C   0  0  0  0  0  0  0  0  0  0  0  0
   -7.1861   -1.2018    0.0000 N   0  0  0  0  0  0  0  0  0  0  0  0
   -8.5564   -1.8119    0.0000 C   0  0  0  0  0  0  0  0  0  0  0  0
   -5.9726   -2.0835    0.0000 C   0  0  0  0  0  0  0  0  0  0  0  0
   -5.6590    0.9001    0.0000 C   0  0  0  0  0  0  0  0  0  0  0  0
   -5.0760    0.3564    0.0000 O   0  0  0  0  0  0  0  0  0  0  0  0
   -3.5285    0.7500    0.0000 C   0  0  0  0  0  0  0  0  0  0  0  0
   -4.2257    0.3635    0.0000 C   0  0  0  0  0  0  0  0  0  0  0  0
   -4.5705    1.8290    0.0000 O   0  0  0  0  0  0  0  0  0  0  0  0
   -3.5285   -0.7500    0.0000 C   0  0  0  0  0  0  0  0  0  0  0  0
   -2.9184   -2.1203    0.0000 C   0  0  0  0  0  0  0  0  0  0  0  0
   -4.1319   -3.0020    0.0000 C   0  0  0  0  0  0  0  0  0  0  0  0
   -1.8037   -3.1240    0.0000 C   0  0  0  0  0  0  0  0  0  0  0  0
   -0.3771   -3.5875    0.0000 N   0  0  0  0  0  0  0  0  0  0  0  0
   -0.5339   -5.0793    0.0000 C   0  0  0  0  0  0  0  0  0  0  0  0
    1.1147   -3.4307    0.0000 C   0  0  0  0  0  0  0  0  0  0  0  0
    1.5782   -4.8573    0.0000 C   0  0  0  0  0  0  0  0  0  0  0  0
    2.4138   -2.6807    0.0000 C   0  0  0  0  0  0  0  0  0  0  0  0
    3.4175   -3.7955    0.0000 O   0  0  0  0  0  0  0  0  0  0  0  0
    4.8847   -3.4836    0.0000 C   0  0  0  0  0  0  0  0  0  0  0  0
    3.2954   -1.4672    0.0000 C   0  0  0  0  0  0  0  0  0  0  0  0
    4.7726   -1.2067    0.0000 C   0  0  0  0  0  0  0  0  0  0  0  0
    4.0903   -2.7393    0.0000 O   0  0  0  0  0  0  0  0  0  0  0  0
    5.5894   -2.6869    0.0000 C   0  0  0  0  0  0  0  0  0  0  0  0
  1  2  1  0
  3  2  1  6
  3  4  1  0
  4  5  1  0
  5  6  2  0
  5  7  1  0
  7  8  1  1
  7  9  1  0
  9 10  1  6
 11 10  1  1
 11 12  1  0
 12 13  1  0
 13 14  1  6
 13 15  1  0
 15 16  1  0
 13 17  1  0
 17 18  1  1
 17 19  1  0
 19 20  1  1
 19 21  1  0
  9 22  1  0
 22 23  1  1
 22 24  1  0
 24 25  1  6
 26 25  1  1
 26 27  1  0
 27 28  1  0
 28 29  1  1
 28 30  1  0
 30 31  1  0
 31 32  1  6
 32 33  1  0
 32 34  1  0
 31 35  1  0
 35 36  1  6
 24 37  1  0
 37 38  1  6
 37 39  1  0
 37 40  1  0
 40 41  1  0
 41 42  1  6
 41 43  1  0
 43 44  1  0
 44 45  1  0
 44 46  1  0
 46 47  1  1
 46 48  1  0
 48 49  1  6
 49 50  1  0
 48 51  1  0
 51 52  1  6
 51 53  1  0
 53 54  1  0
 51  3  1  0
 21 11  1  0
 35 26  1  0
M  END
>  <ChEMBL_IDs>  (426) 
CHEMBL2368181

>  <target_organism>  (426) 
Homo sapiens

>  <target_molecule_pref_name>  (426) 
nan

>  <# Known Targets>  (426) 
nan

>  <Known Targets>  (426) 
nan

>  <smiles>  (426) 
CC[C@H]1OC(=O)[C@H](C)[C@@H](O[C@H]2C[C@@](C)(OC)[C@@H](O)[C@@H](C)O2)[C@H](C)[C@@H](O[C@@H]2O[C@H](C)C[C@@H](N(C)C)[C@H]2O)[C@](C)(O)C[C@@H](C)CN(C)[C@H](C)[C@@H](OC)[C@]1(C)OC

$$$$

     RDKit          2D

 55 57  0  0  0  0  0  0  0  0999 V2000
    5.6205   -1.2990    0.0000 C   0  0  0  0  0  0  0  0  0  0  0  0
    4.8705    0.0000    0.0000 C   0  0  0  0  0  0  0  0  0  0  0  0
    3.3705    0.0000    0.0000 C   0  0  0  0  0  0  0  0  0  0  0  0
    3.0367   -1.4624    0.0000 O   0  0  0  0  0  0  0  0  0  0  0  0
    2.1015   -2.6351    0.0000 C   0  0  0  0  0  0  0  0  0  0  0  0
    3.0367   -3.8079    0.0000 O   0  0  0  0  0  0  0  0  0  0  0  0
    0.7500   -3.2860    0.0000 C   0  0  0  0  0  0  0  0  0  0  0  0
    1.3600   -4.4903    0.0000 C   0  0  0  0  0  0  0  0  0  0  0  0
   -0.7500   -3.2860    0.0000 C   0  0  0  0  0  0  0  0  0  0  0  0
   -1.0838   -4.7484    0.0000 O   0  0  0  0  0  0  0  0  0  0  0  0
    0.0158   -5.7686    0.0000 C   0  0  0  0  0  0  0  0  0  0  0  0
   -0.3180   -7.2310    0.0000 C   0  0  0  0  0  0  0  0  0  0  0  0
    0.7816   -8.2513    0.0000 C   0  0  0  0  0  0  0  0  0  0  0  0
    1.4659   -9.5861    0.0000 C   0  0  0  0  0  0  0  0  0  0  0  0
   -0.4141   -9.1570    0.0000 O   0  0  0  0  0  0  0  0  0  0  0  0
   -0.2276  -10.6453    0.0000 C   0  0  0  0  0  0  0  0  0  0  0  0
    2.2150   -7.8091    0.0000 C   0  0  0  0  0  0  0  0  0  0  0  0
    3.3145   -8.8294    0.0000 O   0  0  0  0  0  0  0  0  0  0  0  0
    2.5487   -6.3467    0.0000 C   0  0  0  0  0  0  0  0  0  0  0  0
    3.9821   -5.9046    0.0000 C   0  0  0  0  0  0  0  0  0  0  0  0
    1.4492   -5.3265    0.0000 O   0  0  0  0  0  0  0  0  0  0  0  0
   -2.1015   -2.6351    0.0000 C   0  0  0  0  0  0  0  0  0  0  0  0
   -3.0367   -3.8079    0.0000 C   0  0  0  0  0  0  0  0  0  0  0  0
   -3.0367   -1.4624    0.0000 C   0  0  0  0  0  0  0  0  0  0  0  0
   -4.3881   -2.1132    0.0000 O   0  0  0  0  0  0  0  0  0  0  0  0
   -5.6275   -1.2682    0.0000 C   0  0  0  0  0  0  0  0  0  0  0  0
   -5.5154    0.2276    0.0000 O   0  0  0  0  0  0  0  0  0  0  0  0
   -6.7548    1.0725    0.0000 C   0  0  0  0  0  0  0  0  0  0  0  0
   -6.6427    2.5684    0.0000 C   0  0  0  0  0  0  0  0  0  0  0  0
   -8.1062    0.4217    0.0000 C   0  0  0  0  0  0  0  0  0  0  0  0
   -8.2183   -1.0741    0.0000 C   0  0  0  0  0  0  0  0  0  0  0  0
   -9.5698   -1.7249    0.0000 N   0  0  0  0  0  0  0  0  0  0  0  0
  -10.8091   -0.8799    0.0000 C   0  0  0  0  0  0  0  0  0  0  0  0
   -9.6819   -3.2207    0.0000 C   0  0  0  0  0  0  0  0  0  0  0  0
   -6.9790   -1.9191    0.0000 C   0  0  0  0  0  0  0  0  0  0  0  0
   -7.0910   -3.4149    0.0000 O   0  0  0  0  0  0  0  0  0  0  0  0
   -3.3705    0.0000    0.0000 C   0  0  0  0  0  0  0  0  0  0  0  0
   -4.6098   -0.8450    0.0000 C   0  0  0  0  0  0  0  0  0  0  0  0
   -4.6098    0.8450    0.0000 O   0  0  0  0  0  0  0  0  0  0  0  0
   -3.0367    1.4624    0.0000 C   0  0  0  0  0  0  0  0  0  0  0  0
   -2.1015    2.6351    0.0000 C   0  0  0  0  0  0  0  0  0  0  0  0
   -3.0367    3.8079    0.0000 C   0  0  0  0  0  0  0  0  0  0  0  0
   -0.7500    3.2860    0.0000 C   0  0  0  0  0  0  0  0  0  0  0  0
   -1.0838    4.7484    0.0000 N   0  0  0  0  0  0  0  0  0  0  0  0
    0.0158    5.7686    0.0000 C   0  0  0  0  0  0  0  0  0  0  0  0
   -0.3180    7.2310    0.0000 C   0  0  0  0  0  0  0  0  0  0  0  0
    0.7816    8.2513    0.0000 O   0  0  0  0  0  0  0  0  0  0  0  0
    0.4478    9.7137    0.0000 C   0  0  0  0  0  0  0  0  0  0  0  0
    0.7500    3.2860    0.0000 C   0  0  0  0  0  0  0  0  0  0  0  0
    1.0838    4.7484    0.0000 C   0  0  0  0  0  0  0  0  0  0  0  0
    2.1015    2.6351    0.0000 C   0  0  0  0  0  0  0  0  0  0  0  0
    3.0367    3.8079    0.0000 O   0  0  0  0  0  0  0  0  0  0  0  0
    3.0367    1.4624    0.0000 C   0  0  0  0  0  0  0  0  0  0  0  0
    3.7867    2.7614    0.0000 C   0  0  0  0  0  0  0  0  0  0  0  0
    4.5199    1.2388    0.0000 O   0  0  0  0  0  0  0  0  0  0  0  0
  1  2  1  0
  3  2  1  1
  3  4  1  0
  4  5  1  0
  5  6  2  0
  5  7  1  0
  7  8  1  6
  7  9  1  0
  9 10  1  1
 11 10  1  6
 11 12  1  0
 12 13  1  0
 13 14  1  1
 13 15  1  0
 15 16  1  0
 13 17  1  0
 17 18  1  6
 17 19  1  0
 19 20  1  1
 19 21  1  0
  9 22  1  0
 22 23  1  6
 22 24  1  0
 24 25  1  1
 26 25  1  1
 26 27  1  0
 27 28  1  0
 28 29  1  1
 28 30  1  0
 30 31  1  0
 31 32  1  1
 32 33  1  0
 32 34  1  0
 31 35  1  0
 35 36  1  6
 24 37  1  0
 37 38  1  1
 37 39  1  0
 37 40  1  0
 40 41  1  0
 41 42  1  1
 41 43  1  0
 43 44  1  0
 44 45  1  0
 45 46  1  0
 46 47  1  0
 47 48  1  0
 43 49  1  0
 49 50  1  6
 49 51  1  0
 51 52  1  1
 51 53  1  0
 53 54  1  1
 53 55  1  0
 53  3  1  0
 21 11  1  0
 35 26  1  0
M  END
>  <ChEMBL_IDs>  (427) 
nan

>  <target_organism>  (427) 
nan

>  <target_molecule_pref_name>  (427) 
nan

>  <# Known Targets>  (427) 
nan

>  <Known Targets>  (427) 
nan

>  <smiles>  (427) 
CC[C@H]1OC(=O)[C@H](C)[C@@H](O[C@H]2C[C@@](C)(OC)[C@@H](O)[C@H](C)O2)[C@H](C)[C@@H](O[C@@H]2O[C@H](C)C[C@H](N(C)C)[C@H]2O)[C@](C)(O)C[C@@H](C)C(NCCOC)[C@H](C)[C@@H](O)[C@]1(C)O

$$$$

     RDKit          2D

 55 57  0  0  0  0  0  0  0  0999 V2000
    5.6205   -1.2990    0.0000 C   0  0  0  0  0  0  0  0  0  0  0  0
    4.8705    0.0000    0.0000 C   0  0  0  0  0  0  0  0  0  0  0  0
    3.3705    0.0000    0.0000 C   0  0  0  0  0  0  0  0  0  0  0  0
    3.0367   -1.4624    0.0000 O   0  0  0  0  0  0  0  0  0  0  0  0
    2.1015   -2.6351    0.0000 C   0  0  0  0  0  0  0  0  0  0  0  0
    3.0367   -3.8079    0.0000 O   0  0  0  0  0  0  0  0  0  0  0  0
    0.7500   -3.2860    0.0000 C   0  0  0  0  0  0  0  0  0  0  0  0
    1.3600   -4.4903    0.0000 C   0  0  0  0  0  0  0  0  0  0  0  0
   -0.7500   -3.2860    0.0000 C   0  0  0  0  0  0  0  0  0  0  0  0
   -1.0838   -4.7484    0.0000 O   0  0  0  0  0  0  0  0  0  0  0  0
    0.0158   -5.7686    0.0000 C   0  0  0  0  0  0  0  0  0  0  0  0
   -0.3180   -7.2310    0.0000 C   0  0  0  0  0  0  0  0  0  0  0  0
    0.7816   -8.2513    0.0000 C   0  0  0  0  0  0  0  0  0  0  0  0
    1.4659   -9.5861    0.0000 C   0  0  0  0  0  0  0  0  0  0  0  0
   -0.4141   -9.1570    0.0000 O   0  0  0  0  0  0  0  0  0  0  0  0
   -0.2276  -10.6453    0.0000 C   0  0  0  0  0  0  0  0  0  0  0  0
    2.2150   -7.8091    0.0000 C   0  0  0  0  0  0  0  0  0  0  0  0
    3.3145   -8.8294    0.0000 O   0  0  0  0  0  0  0  0  0  0  0  0
    2.5487   -6.3467    0.0000 C   0  0  0  0  0  0  0  0  0  0  0  0
    3.9821   -5.9046    0.0000 C   0  0  0  0  0  0  0  0  0  0  0  0
    1.4492   -5.3265    0.0000 O   0  0  0  0  0  0  0  0  0  0  0  0
   -2.1015   -2.6351    0.0000 C   0  0  0  0  0  0  0  0  0  0  0  0
   -3.0367   -3.8079    0.0000 C   0  0  0  0  0  0  0  0  0  0  0  0
   -3.0367   -1.4624    0.0000 C   0  0  0  0  0  0  0  0  0  0  0  0
   -4.3881   -2.1132    0.0000 O   0  0  0  0  0  0  0  0  0  0  0  0
   -5.6275   -1.2682    0.0000 C   0  0  0  0  0  0  0  0  0  0  0  0
   -5.5154    0.2276    0.0000 O   0  0  0  0  0  0  0  0  0  0  0  0
   -6.7548    1.0725    0.0000 C   0  0  0  0  0  0  0  0  0  0  0  0
   -6.6427    2.5684    0.0000 C   0  0  0  0  0  0  0  0  0  0  0  0
   -8.1062    0.4217    0.0000 C   0  0  0  0  0  0  0  0  0  0  0  0
   -8.2183   -1.0741    0.0000 C   0  0  0  0  0  0  0  0  0  0  0  0
   -9.5698   -1.7249    0.0000 N   0  0  0  0  0  0  0  0  0  0  0  0
  -10.8091   -0.8799    0.0000 C   0  0  0  0  0  0  0  0  0  0  0  0
   -9.6819   -3.2207    0.0000 C   0  0  0  0  0  0  0  0  0  0  0  0
   -6.9790   -1.9191    0.0000 C   0  0  0  0  0  0  0  0  0  0  0  0
   -7.0910   -3.4149    0.0000 O   0  0  0  0  0  0  0  0  0  0  0  0
   -3.3705    0.0000    0.0000 C   0  0  0  0  0  0  0  0  0  0  0  0
   -4.6098   -0.8450    0.0000 C   0  0  0  0  0  0  0  0  0  0  0  0
   -4.6098    0.8450    0.0000 O   0  0  0  0  0  0  0  0  0  0  0  0
   -3.0367    1.4624    0.0000 C   0  0  0  0  0  0  0  0  0  0  0  0
   -2.1015    2.6351    0.0000 C   0  0  0  0  0  0  0  0  0  0  0  0
   -3.0367    3.8079    0.0000 C   0  0  0  0  0  0  0  0  0  0  0  0
   -0.7500    3.2860    0.0000 C   0  0  0  0  0  0  0  0  0  0  0  0
   -1.0838    4.7484    0.0000 N   0  0  0  0  0  0  0  0  0  0  0  0
    0.0158    5.7686    0.0000 C   0  0  0  0  0  0  0  0  0  0  0  0
   -0.3180    7.2310    0.0000 C   0  0  0  0  0  0  0  0  0  0  0  0
    0.7816    8.2513    0.0000 O   0  0  0  0  0  0  0  0  0  0  0  0
    0.4478    9.7137    0.0000 C   0  0  0  0  0  0  0  0  0  0  0  0
    0.7500    3.2860    0.0000 C   0  0  0  0  0  0  0  0  0  0  0  0
    1.0838    4.7484    0.0000 C   0  0  0  0  0  0  0  0  0  0  0  0
    2.1015    2.6351    0.0000 C   0  0  0  0  0  0  0  0  0  0  0  0
    3.0367    3.8079    0.0000 O   0  0  0  0  0  0  0  0  0  0  0  0
    3.0367    1.4624    0.0000 C   0  0  0  0  0  0  0  0  0  0  0  0
    3.7867    2.7614    0.0000 C   0  0  0  0  0  0  0  0  0  0  0  0
    4.5199    1.2388    0.0000 O   0  0  0  0  0  0  0  0  0  0  0  0
  1  2  1  0
  3  2  1  1
  3  4  1  0
  4  5  1  0
  5  6  2  0
  5  7  1  0
  7  8  1  6
  7  9  1  0
  9 10  1  1
 10 11  1  0
 11 12  1  0
 12 13  1  0
 13 14  1  0
 13 15  1  0
 15 16  1  0
 13 17  1  0
 17 18  1  0
 17 19  1  0
 19 20  1  0
 19 21  1  0
  9 22  1  0
 22 23  1  6
 22 24  1  0
 24 25  1  1
 25 26  1  0
 26 27  1  0
 27 28  1  0
 28 29  1  0
 28 30  1  0
 30 31  1  0
 31 32  1  0
 32 33  1  0
 32 34  1  0
 31 35  1  0
 35 36  1  0
 24 37  1  0
 37 38  1  1
 37 39  1  0
 37 40  1  0
 40 41  1  0
 41 42  1  1
 41 43  1  0
 43 44  1  6
 44 45  1  0
 45 46  1  0
 46 47  1  0
 47 48  1  0
 43 49  1  0
 49 50  1  6
 49 51  1  0
 51 52  1  1
 51 53  1  0
 53 54  1  1
 53 55  1  0
 53  3  1  0
 21 11  1  0
 35 26  1  0
M  END
>  <ChEMBL_IDs>  (428) 
CHEMBL105604

>  <target_organism>  (428) 
nan

>  <target_molecule_pref_name>  (428) 
nan

>  <# Known Targets>  (428) 
nan

>  <Known Targets>  (428) 
nan

>  <smiles>  (428) 
CC[C@H]1OC(=O)[C@H](C)[C@@H](OC2CC(C)(OC)C(O)C(C)O2)[C@H](C)[C@@H](OC2OC(C)CC(N(C)C)C2O)[C@](C)(O)C[C@@H](C)[C@H](NCCOC)[C@H](C)[C@@H](O)[C@]1(C)O

$$$$

     RDKit          2D

 56 58  0  0  0  0  0  0  0  0999 V2000
    5.8573   -1.2990    0.0000 C   0  0  0  0  0  0  0  0  0  0  0  0
    5.1073    0.0000    0.0000 C   0  0  0  0  0  0  0  0  0  0  0  0
    3.6073    0.0000    0.0000 C   0  0  0  0  0  0  0  0  0  0  0  0
    3.2954    1.4672    0.0000 O   0  0  0  0  0  0  0  0  0  0  0  0
    2.4138    2.6807    0.0000 C   0  0  0  0  0  0  0  0  0  0  0  0
    3.4175    3.7955    0.0000 O   0  0  0  0  0  0  0  0  0  0  0  0
    1.1147    3.4307    0.0000 C   0  0  0  0  0  0  0  0  0  0  0  0
    1.8302    4.5756    0.0000 C   0  0  0  0  0  0  0  0  0  0  0  0
   -0.3771    3.5875    0.0000 C   0  0  0  0  0  0  0  0  0  0  0  0
   -0.5339    5.0793    0.0000 O   0  0  0  0  0  0  0  0  0  0  0  0
    0.6797    5.9610    0.0000 C   0  0  0  0  0  0  0  0  0  0  0  0
    0.5229    7.4528    0.0000 C   0  0  0  0  0  0  0  0  0  0  0  0
    1.7364    8.3345    0.0000 C   0  0  0  0  0  0  0  0  0  0  0  0
    2.5752    9.5780    0.0000 C   0  0  0  0  0  0  0  0  0  0  0  0
    0.6574    9.3764    0.0000 O   0  0  0  0  0  0  0  0  0  0  0  0
    1.0203   10.8319    0.0000 C   0  0  0  0  0  0  0  0  0  0  0  0
    3.1067    7.7244    0.0000 C   0  0  0  0  0  0  0  0  0  0  0  0
    3.4696    9.1798    0.0000 O   0  0  0  0  0  0  0  0  0  0  0  0
    4.6031    7.6197    0.0000 C   0  0  0  0  0  0  0  0  0  0  0  0
    5.4419    8.8633    0.0000 S   0  0  0  0  0  0  0  0  0  0  0  0
    6.9382    8.7586    0.0000 C   0  0  0  0  0  0  0  0  0  0  0  0
    7.7770   10.0022    0.0000 C   0  0  0  0  0  0  0  0  0  0  0  0
    9.2733    9.8976    0.0000 O   0  0  0  0  0  0  0  0  0  0  0  0
    3.2635    6.2326    0.0000 C   0  0  0  0  0  0  0  0  0  0  0  0
    4.6338    5.6225    0.0000 C   0  0  0  0  0  0  0  0  0  0  0  0
    2.0500    5.3509    0.0000 O   0  0  0  0  0  0  0  0  0  0  0  0
   -1.8037    3.1240    0.0000 C   0  0  0  0  0  0  0  0  0  0  0  0
   -2.5537    4.4231    0.0000 C   0  0  0  0  0  0  0  0  0  0  0  0
   -2.9184    2.1203    0.0000 C   0  0  0  0  0  0  0  0  0  0  0  0
   -4.1319    3.0020    0.0000 O   0  0  0  0  0  0  0  0  0  0  0  0
   -5.5022    2.3919    0.0000 C   0  0  0  0  0  0  0  0  0  0  0  0
   -6.7157    3.2736    0.0000 O   0  0  0  0  0  0  0  0  0  0  0  0
   -8.0861    2.6635    0.0000 C   0  0  0  0  0  0  0  0  0  0  0  0
   -9.2996    3.5451    0.0000 C   0  0  0  0  0  0  0  0  0  0  0  0
   -8.2428    1.1717    0.0000 C   0  0  0  0  0  0  0  0  0  0  0  0
   -7.0293    0.2900    0.0000 C   0  0  0  0  0  0  0  0  0  0  0  0
   -7.1861   -1.2018    0.0000 N   0  0  0  0  0  0  0  0  0  0  0  0
   -8.5564   -1.8119    0.0000 C   0  0  0  0  0  0  0  0  0  0  0  0
   -5.9726   -2.0835    0.0000 C   0  0  0  0  0  0  0  0  0  0  0  0
   -5.6590    0.9001    0.0000 C   0  0  0  0  0  0  0  0  0  0  0  0
   -5.0760    0.3564    0.0000 O   0  0  0  0  0  0  0  0  0  0  0  0
   -3.5285    0.7500    0.0000 C   0  0  0  0  0  0  0  0  0  0  0  0
   -4.2257    0.3635    0.0000 C   0  0  0  0  0  0  0  0  0  0  0  0
   -4.5705    1.8290    0.0000 O   0  0  0  0  0  0  0  0  0  0  0  0
   -3.5285   -0.7500    0.0000 C   0  0  0  0  0  0  0  0  0  0  0  0
   -2.9184   -2.1203    0.0000 C   0  0  0  0  0  0  0  0  0  0  0  0
   -4.1319   -3.0020    0.0000 C   0  0  0  0  0  0  0  0  0  0  0  0
   -1.8037   -3.1240    0.0000 C   0  0  0  0  0  0  0  0  0  0  0  0
   -0.3771   -3.5875    0.0000 N   0  0  0  0  0  0  0  0  0  0  0  0
    1.1147   -3.4307    0.0000 C   0  0  0  0  0  0  0  0  0  0  0  0
    1.5782   -4.8573    0.0000 C   0  0  0  0  0  0  0  0  0  0  0  0
    2.4138   -2.6807    0.0000 C   0  0  0  0  0  0  0  0  0  0  0  0
    3.4175   -3.7955    0.0000 O   0  0  0  0  0  0  0  0  0  0  0  0
    3.2954   -1.4672    0.0000 C   0  0  0  0  0  0  0  0  0  0  0  0
    4.7726   -1.2067    0.0000 C   0  0  0  0  0  0  0  0  0  0  0  0
    4.0903   -2.7393    0.0000 O   0  0  0  0  0  0  0  0  0  0  0  0
  1  2  1  0
  3  2  1  6
  3  4  1  0
  4  5  1  0
  5  6  2  0
  5  7  1  0
  7  8  1  1
  7  9  1  0
  9 10  1  6
 11 10  1  1
 11 12  1  0
 12 13  1  0
 13 14  1  6
 13 15  1  0
 15 16  1  0
 13 17  1  0
 17 18  1  1
 17 19  1  0
 19 20  1  0
 20 21  1  0
 21 22  1  0
 22 23  1  0
 17 24  1  0
 24 25  1  6
 24 26  1  0
  9 27  1  0
 27 28  1  1
 27 29  1  0
 29 30  1  6
 31 30  1  1
 31 32  1  0
 32 33  1  0
 33 34  1  1
 33 35  1  0
 35 36  1  0
 36 37  1  1
 37 38  1  0
 37 39  1  0
 36 40  1  0
 40 41  1  6
 29 42  1  0
 42 43  1  6
 42 44  1  0
 42 45  1  0
 45 46  1  0
 46 47  1  6
 46 48  1  0
 48 49  1  0
 49 50  1  0
 50 51  1  1
 50 52  1  0
 52 53  1  6
 52 54  1  0
 54 55  1  6
 54 56  1  0
 54  3  1  0
 26 11  1  0
 40 31  1  0
M  END
>  <ChEMBL_IDs>  (429) 
CHEMBL2114270

>  <target_organism>  (429) 
Plasmodium falciparum

>  <target_molecule_pref_name>  (429) 
nan

>  <# Known Targets>  (429) 
nan

>  <Known Targets>  (429) 
nan

>  <smiles>  (429) 
CC[C@H]1OC(=O)[C@H](C)[C@@H](O[C@H]2C[C@@](C)(OC)[C@](O)(CSCCO)[C@H](C)O2)[C@H](C)[C@@H](O[C@@H]2O[C@H](C)C[C@H](N(C)C)[C@H]2O)[C@](C)(O)C[C@@H](C)CN[C@H](C)[C@@H](O)[C@]1(C)O

$$$$

     RDKit          2D

 56 58  0  0  0  0  0  0  0  0999 V2000
    5.8573   -1.2990    0.0000 C   0  0  0  0  0  0  0  0  0  0  0  0
    5.1073    0.0000    0.0000 C   0  0  0  0  0  0  0  0  0  0  0  0
    3.6073    0.0000    0.0000 C   0  0  0  0  0  0  0  0  0  0  0  0
    3.2954    1.4672    0.0000 O   0  0  0  0  0  0  0  0  0  0  0  0
    2.4138    2.6807    0.0000 C   0  0  0  0  0  0  0  0  0  0  0  0
    3.4175    3.7955    0.0000 O   0  0  0  0  0  0  0  0  0  0  0  0
    1.1147    3.4307    0.0000 C   0  0  0  0  0  0  0  0  0  0  0  0
    1.8302    4.5756    0.0000 C   0  0  0  0  0  0  0  0  0  0  0  0
   -0.3771    3.5875    0.0000 C   0  0  0  0  0  0  0  0  0  0  0  0
   -0.5339    5.0793    0.0000 O   0  0  0  0  0  0  0  0  0  0  0  0
    0.6797    5.9610    0.0000 C   0  0  0  0  0  0  0  0  0  0  0  0
    0.5229    7.4528    0.0000 C   0  0  0  0  0  0  0  0  0  0  0  0
    1.7364    8.3345    0.0000 C   0  0  0  0  0  0  0  0  0  0  0  0
    2.5752    9.5780    0.0000 C   0  0  0  0  0  0  0  0  0  0  0  0
    0.6574    9.3764    0.0000 O   0  0  0  0  0  0  0  0  0  0  0  0
    1.0203   10.8319    0.0000 C   0  0  0  0  0  0  0  0  0  0  0  0
    3.1067    7.7244    0.0000 C   0  0  0  0  0  0  0  0  0  0  0  0
    3.4696    9.1798    0.0000 O   0  0  0  0  0  0  0  0  0  0  0  0
    4.6031    7.6197    0.0000 C   0  0  0  0  0  0  0  0  0  0  0  0
    5.4419    8.8633    0.0000 S   0  0  0  0  0  0  0  0  0  0  0  0
    6.9382    8.7586    0.0000 C   0  0  0  0  0  0  0  0  0  0  0  0
    7.7770   10.0022    0.0000 C   0  0  0  0  0  0  0  0  0  0  0  0
    9.2733    9.8976    0.0000 O   0  0  0  0  0  0  0  0  0  0  0  0
    3.2635    6.2326    0.0000 C   0  0  0  0  0  0  0  0  0  0  0  0
    4.6338    5.6225    0.0000 C   0  0  0  0  0  0  0  0  0  0  0  0
    2.0500    5.3509    0.0000 O   0  0  0  0  0  0  0  0  0  0  0  0
   -1.8037    3.1240    0.0000 C   0  0  0  0  0  0  0  0  0  0  0  0
   -2.5537    4.4231    0.0000 C   0  0  0  0  0  0  0  0  0  0  0  0
   -2.9184    2.1203    0.0000 C   0  0  0  0  0  0  0  0  0  0  0  0
   -4.1319    3.0020    0.0000 O   0  0  0  0  0  0  0  0  0  0  0  0
   -5.5022    2.3919    0.0000 C   0  0  0  0  0  0  0  0  0  0  0  0
   -6.7157    3.2736    0.0000 O   0  0  0  0  0  0  0  0  0  0  0  0
   -8.0861    2.6635    0.0000 C   0  0  0  0  0  0  0  0  0  0  0  0
   -9.2996    3.5451    0.0000 C   0  0  0  0  0  0  0  0  0  0  0  0
   -8.2428    1.1717    0.0000 C   0  0  0  0  0  0  0  0  0  0  0  0
   -7.0293    0.2900    0.0000 C   0  0  0  0  0  0  0  0  0  0  0  0
   -7.1861   -1.2018    0.0000 N   0  0  0  0  0  0  0  0  0  0  0  0
   -8.5564   -1.8119    0.0000 C   0  0  0  0  0  0  0  0  0  0  0  0
   -5.9726   -2.0835    0.0000 C   0  0  0  0  0  0  0  0  0  0  0  0
   -5.6590    0.9001    0.0000 C   0  0  0  0  0  0  0  0  0  0  0  0
   -5.0760    0.3564    0.0000 O   0  0  0  0  0  0  0  0  0  0  0  0
   -3.5285    0.7500    0.0000 C   0  0  0  0  0  0  0  0  0  0  0  0
   -4.2257    0.3635    0.0000 C   0  0  0  0  0  0  0  0  0  0  0  0
   -4.5705    1.8290    0.0000 O   0  0  0  0  0  0  0  0  0  0  0  0
   -3.5285   -0.7500    0.0000 C   0  0  0  0  0  0  0  0  0  0  0  0
   -2.9184   -2.1203    0.0000 C   0  0  0  0  0  0  0  0  0  0  0  0
   -4.1319   -3.0020    0.0000 C   0  0  0  0  0  0  0  0  0  0  0  0
   -1.8037   -3.1240    0.0000 C   0  0  0  0  0  0  0  0  0  0  0  0
   -0.3771   -3.5875    0.0000 N   0  0  0  0  0  0  0  0  0  0  0  0
    1.1147   -3.4307    0.0000 C   0  0  0  0  0  0  0  0  0  0  0  0
    1.5782   -4.8573    0.0000 C   0  0  0  0  0  0  0  0  0  0  0  0
    2.4138   -2.6807    0.0000 C   0  0  0  0  0  0  0  0  0  0  0  0
    3.4175   -3.7955    0.0000 O   0  0  0  0  0  0  0  0  0  0  0  0
    3.2954   -1.4672    0.0000 C   0  0  0  0  0  0  0  0  0  0  0  0
    4.7726   -1.2067    0.0000 C   0  0  0  0  0  0  0  0  0  0  0  0
    4.0903   -2.7393    0.0000 O   0  0  0  0  0  0  0  0  0  0  0  0
  1  2  1  0
  3  2  1  6
  3  4  1  0
  4  5  1  0
  5  6  2  0
  5  7  1  0
  7  8  1  1
  7  9  1  0
  9 10  1  6
 11 10  1  1
 11 12  1  0
 12 13  1  0
 13 14  1  6
 13 15  1  0
 15 16  1  0
 13 17  1  0
 17 18  1  6
 17 19  1  0
 19 20  1  0
 20 21  1  0
 21 22  1  0
 22 23  1  0
 17 24  1  0
 24 25  1  6
 24 26  1  0
  9 27  1  0
 27 28  1  1
 27 29  1  0
 29 30  1  6
 31 30  1  1
 31 32  1  0
 32 33  1  0
 33 34  1  1
 33 35  1  0
 35 36  1  0
 36 37  1  1
 37 38  1  0
 37 39  1  0
 36 40  1  0
 40 41  1  6
 29 42  1  0
 42 43  1  6
 42 44  1  0
 42 45  1  0
 45 46  1  0
 46 47  1  6
 46 48  1  0
 48 49  1  0
 49 50  1  0
 50 51  1  1
 50 52  1  0
 52 53  1  6
 52 54  1  0
 54 55  1  6
 54 56  1  0
 54  3  1  0
 26 11  1  0
 40 31  1  0
M  END
>  <ChEMBL_IDs>  (430) 
CHEMBL330749

>  <target_organism>  (430) 
Homo sapiens

>  <target_molecule_pref_name>  (430) 
nan

>  <# Known Targets>  (430) 
nan

>  <Known Targets>  (430) 
nan

>  <smiles>  (430) 
CC[C@H]1OC(=O)[C@H](C)[C@@H](O[C@H]2C[C@@](C)(OC)[C@@](O)(CSCCO)[C@H](C)O2)[C@H](C)[C@@H](O[C@@H]2O[C@H](C)C[C@H](N(C)C)[C@H]2O)[C@](C)(O)C[C@@H](C)CN[C@H](C)[C@@H](O)[C@]1(C)O

$$$$

     RDKit          2D

 54 56  0  0  0  0  0  0  0  0999 V2000
    7.3573    1.2990    0.0000 C   0  0  0  0  0  0  0  0  0  0  0  0
    5.8573    1.2990    0.0000 C   0  0  0  0  0  0  0  0  0  0  0  0
    5.1073    0.0000    0.0000 C   0  0  0  0  0  0  0  0  0  0  0  0
    3.6073    0.0000    0.0000 N   0  0  0  0  0  0  0  0  0  0  0  0
    3.2954    1.4672    0.0000 C   0  0  0  0  0  0  0  0  0  0  0  0
    2.4138    2.6807    0.0000 C   0  0  0  0  0  0  0  0  0  0  0  0
    3.4175    3.7955    0.0000 C   0  0  0  0  0  0  0  0  0  0  0  0
    1.1147    3.4307    0.0000 C   0  0  0  0  0  0  0  0  0  0  0  0
    1.5782    4.8573    0.0000 O   0  0  0  0  0  0  0  0  0  0  0  0
   -0.3771    3.5875    0.0000 C   0  0  0  0  0  0  0  0  0  0  0  0
   -1.3412    4.7366    0.0000 C   0  0  0  0  0  0  0  0  0  0  0  0
    0.3271    4.9120    0.0000 O   0  0  0  0  0  0  0  0  0  0  0  0
   -1.8037    3.1240    0.0000 C   0  0  0  0  0  0  0  0  0  0  0  0
   -2.5537    4.4231    0.0000 C   0  0  0  0  0  0  0  0  0  0  0  0
   -1.8037    5.7221    0.0000 C   0  0  0  0  0  0  0  0  0  0  0  0
   -2.9184    2.1203    0.0000 O   0  0  0  0  0  0  0  0  0  0  0  0
   -3.5285    0.7500    0.0000 C   0  0  0  0  0  0  0  0  0  0  0  0
   -4.9957    1.0619    0.0000 O   0  0  0  0  0  0  0  0  0  0  0  0
   -3.5285   -0.7500    0.0000 C   0  0  0  0  0  0  0  0  0  0  0  0
   -4.8776   -0.7028    0.0000 C   0  0  0  0  0  0  0  0  0  0  0  0
   -2.9184   -2.1203    0.0000 C   0  0  0  0  0  0  0  0  0  0  0  0
   -4.1319   -3.0020    0.0000 O   0  0  0  0  0  0  0  0  0  0  0  0
   -5.5022   -2.3919    0.0000 C   0  0  0  0  0  0  0  0  0  0  0  0
   -6.7157   -3.2736    0.0000 C   0  0  0  0  0  0  0  0  0  0  0  0
   -8.0861   -2.6635    0.0000 C   0  0  0  0  0  0  0  0  0  0  0  0
   -9.5824   -2.5588    0.0000 C   0  0  0  0  0  0  0  0  0  0  0  0
   -8.4489   -4.1189    0.0000 O   0  0  0  0  0  0  0  0  0  0  0  0
   -9.8908   -4.5324    0.0000 C   0  0  0  0  0  0  0  0  0  0  0  0
   -8.2428   -1.1717    0.0000 C   0  0  0  0  0  0  0  0  0  0  0  0
   -9.6132   -0.5616    0.0000 N   0  0  0  0  0  0  0  0  0  0  0  0
   -7.0293   -0.2900    0.0000 C   0  0  0  0  0  0  0  0  0  0  0  0
   -7.1861    1.2018    0.0000 C   0  0  0  0  0  0  0  0  0  0  0  0
   -5.6590   -0.9001    0.0000 O   0  0  0  0  0  0  0  0  0  0  0  0
   -1.8037   -3.1240    0.0000 C   0  0  0  0  0  0  0  0  0  0  0  0
   -2.5537   -4.4231    0.0000 C   0  0  0  0  0  0  0  0  0  0  0  0
   -0.3771   -3.5875    0.0000 C   0  0  0  0  0  0  0  0  0  0  0  0
   -0.5339   -5.0793    0.0000 O   0  0  0  0  0  0  0  0  0  0  0  0
    0.6797   -5.9610    0.0000 C   0  0  0  0  0  0  0  0  0  0  0  0
    0.5229   -7.4528    0.0000 O   0  0  0  0  0  0  0  0  0  0  0  0
    1.7364   -8.3345    0.0000 C   0  0  0  0  0  0  0  0  0  0  0  0
    1.5796   -9.8262    0.0000 C   0  0  0  0  0  0  0  0  0  0  0  0
    3.1067   -7.7244    0.0000 C   0  0  0  0  0  0  0  0  0  0  0  0
    3.2635   -6.2326    0.0000 C   0  0  0  0  0  0  0  0  0  0  0  0
    4.6338   -5.6225    0.0000 N   0  0  0  0  0  0  0  0  0  0  0  0
    5.8474   -6.5041    0.0000 C   0  0  0  0  0  0  0  0  0  0  0  0
    4.7906   -4.1307    0.0000 C   0  0  0  0  0  0  0  0  0  0  0  0
    2.0500   -5.3509    0.0000 C   0  0  0  0  0  0  0  0  0  0  0  0
    2.2293   -4.5742    0.0000 O   0  0  0  0  0  0  0  0  0  0  0  0
    1.1147   -3.4307    0.0000 C   0  0  0  0  0  0  0  0  0  0  0  0
    1.7980   -3.8413    0.0000 C   0  0  0  0  0  0  0  0  0  0  0  0
    0.7013   -4.8726    0.0000 O   0  0  0  0  0  0  0  0  0  0  0  0
    2.4138   -2.6807    0.0000 C   0  0  0  0  0  0  0  0  0  0  0  0
    3.2954   -1.4672    0.0000 C   0  0  0  0  0  0  0  0  0  0  0  0
    4.6658   -2.0773    0.0000 C   0  0  0  0  0  0  0  0  0  0  0  0
  1  2  1  0
  2  3  1  0
  3  4  1  0
  4  5  1  0
  5  6  1  0
  6  7  1  1
  6  8  1  0
  8  9  1  6
  8 10  1  0
 10 11  1  6
 10 12  1  0
 10 13  1  0
 13 14  1  6
 14 15  1  0
 13 16  1  0
 16 17  1  0
 17 18  2  0
 17 19  1  0
 19 20  1  1
 19 21  1  0
 21 22  1  6
 23 22  1  1
 23 24  1  0
 24 25  1  0
 25 26  1  6
 25 27  1  0
 27 28  1  0
 25 29  1  0
 29 30  1  0
 29 31  1  0
 31 32  1  6
 31 33  1  0
 21 34  1  0
 34 35  1  1
 34 36  1  0
 36 37  1  6
 38 37  1  1
 38 39  1  0
 39 40  1  0
 40 41  1  1
 40 42  1  0
 42 43  1  0
 43 44  1  1
 44 45  1  0
 44 46  1  0
 43 47  1  0
 47 48  1  6
 36 49  1  0
 49 50  1  6
 49 51  1  0
 49 52  1  0
 52 53  1  0
 53 54  1  6
 53  4  1  0
 33 23  1  0
 47 38  1  0
M  END
>  <ChEMBL_IDs>  (431) 
CHEMBL13546

>  <target_organism>  (431) 
nan

>  <target_molecule_pref_name>  (431) 
nan

>  <# Known Targets>  (431) 
nan

>  <Known Targets>  (431) 
nan

>  <smiles>  (431) 
CCCN1C[C@H](C)[C@@H](O)[C@](C)(O)[C@@H](CC)OC(=O)[C@H](C)[C@@H](O[C@H]2C[C@@](C)(OC)C(N)[C@H](C)O2)[C@H](C)[C@@H](O[C@@H]2O[C@H](C)C[C@H](N(C)C)[C@H]2O)[C@](C)(O)C[C@H]1C

$$$$

     RDKit          2D

 55 57  0  0  0  0  0  0  0  0999 V2000
    5.8573   -1.2990    0.0000 C   0  0  0  0  0  0  0  0  0  0  0  0
    5.1073    0.0000    0.0000 C   0  0  0  0  0  0  0  0  0  0  0  0
    3.6073    0.0000    0.0000 C   0  0  0  0  0  0  0  0  0  0  0  0
    3.2954    1.4672    0.0000 O   0  0  0  0  0  0  0  0  0  0  0  0
    2.4138    2.6807    0.0000 C   0  0  0  0  0  0  0  0  0  0  0  0
    3.4175    3.7955    0.0000 O   0  0  0  0  0  0  0  0  0  0  0  0
    1.1147    3.4307    0.0000 C   0  0  0  0  0  0  0  0  0  0  0  0
    1.8302    4.5756    0.0000 C   0  0  0  0  0  0  0  0  0  0  0  0
   -0.3771    3.5875    0.0000 C   0  0  0  0  0  0  0  0  0  0  0  0
   -0.5339    5.0793    0.0000 O   0  0  0  0  0  0  0  0  0  0  0  0
    0.6797    5.9610    0.0000 C   0  0  0  0  0  0  0  0  0  0  0  0
    0.5229    7.4528    0.0000 C   0  0  0  0  0  0  0  0  0  0  0  0
    1.7364    8.3345    0.0000 C   0  0  0  0  0  0  0  0  0  0  0  0
    2.5752    9.5780    0.0000 C   0  0  0  0  0  0  0  0  0  0  0  0
    0.6574    9.3764    0.0000 O   0  0  0  0  0  0  0  0  0  0  0  0
    1.0203   10.8319    0.0000 C   0  0  0  0  0  0  0  0  0  0  0  0
    3.1067    7.7244    0.0000 C   0  0  0  0  0  0  0  0  0  0  0  0
    3.4696    9.1798    0.0000 O   0  0  0  0  0  0  0  0  0  0  0  0
    4.6031    7.6197    0.0000 C   0  0  0  0  0  0  0  0  0  0  0  0
    5.4419    8.8633    0.0000 N   0  0  0  0  0  0  0  0  0  0  0  0
    6.9382    8.7586    0.0000 C   0  0  0  0  0  0  0  0  0  0  0  0
    4.7843   10.2115    0.0000 C   0  0  0  0  0  0  0  0  0  0  0  0
    3.2635    6.2326    0.0000 C   0  0  0  0  0  0  0  0  0  0  0  0
    4.6338    5.6225    0.0000 C   0  0  0  0  0  0  0  0  0  0  0  0
    2.0500    5.3509    0.0000 O   0  0  0  0  0  0  0  0  0  0  0  0
   -1.8037    3.1240    0.0000 C   0  0  0  0  0  0  0  0  0  0  0  0
   -2.5537    4.4231    0.0000 C   0  0  0  0  0  0  0  0  0  0  0  0
   -2.9184    2.1203    0.0000 C   0  0  0  0  0  0  0  0  0  0  0  0
   -4.1319    3.0020    0.0000 O   0  0  0  0  0  0  0  0  0  0  0  0
   -5.5022    2.3919    0.0000 C   0  0  0  0  0  0  0  0  0  0  0  0
   -6.7157    3.2736    0.0000 O   0  0  0  0  0  0  0  0  0  0  0  0
   -8.0861    2.6635    0.0000 C   0  0  0  0  0  0  0  0  0  0  0  0
   -9.2996    3.5451    0.0000 C   0  0  0  0  0  0  0  0  0  0  0  0
   -8.2428    1.1717    0.0000 C   0  0  0  0  0  0  0  0  0  0  0  0
   -7.0293    0.2900    0.0000 C   0  0  0  0  0  0  0  0  0  0  0  0
   -7.1861   -1.2018    0.0000 N   0  0  0  0  0  0  0  0  0  0  0  0
   -8.5564   -1.8119    0.0000 C   0  0  0  0  0  0  0  0  0  0  0  0
   -5.9726   -2.0835    0.0000 C   0  0  0  0  0  0  0  0  0  0  0  0
   -5.6590    0.9001    0.0000 C   0  0  0  0  0  0  0  0  0  0  0  0
   -5.0760    0.3564    0.0000 O   0  0  0  0  0  0  0  0  0  0  0  0
   -3.5285    0.7500    0.0000 C   0  0  0  0  0  0  0  0  0  0  0  0
   -4.2257    0.3635    0.0000 C   0  0  0  0  0  0  0  0  0  0  0  0
   -4.5705    1.8290    0.0000 O   0  0  0  0  0  0  0  0  0  0  0  0
   -3.5285   -0.7500    0.0000 C   0  0  0  0  0  0  0  0  0  0  0  0
   -2.9184   -2.1203    0.0000 C   0  0  0  0  0  0  0  0  0  0  0  0
   -4.1319   -3.0020    0.0000 C   0  0  0  0  0  0  0  0  0  0  0  0
   -1.8037   -3.1240    0.0000 C   0  0  0  0  0  0  0  0  0  0  0  0
   -0.3771   -3.5875    0.0000 N   0  0  0  0  0  0  0  0  0  0  0  0
    1.1147   -3.4307    0.0000 C   0  0  0  0  0  0  0  0  0  0  0  0
    1.5782   -4.8573    0.0000 C   0  0  0  0  0  0  0  0  0  0  0  0
    2.4138   -2.6807    0.0000 C   0  0  0  0  0  0  0  0  0  0  0  0
    3.4175   -3.7955    0.0000 O   0  0  0  0  0  0  0  0  0  0  0  0
    3.2954   -1.4672    0.0000 C   0  0  0  0  0  0  0  0  0  0  0  0
    4.7726   -1.2067    0.0000 C   0  0  0  0  0  0  0  0  0  0  0  0
    4.0903   -2.7393    0.0000 O   0  0  0  0  0  0  0  0  0  0  0  0
  1  2  1  0
  3  2  1  6
  3  4  1  0
  4  5  1  0
  5  6  2  0
  5  7  1  0
  7  8  1  1
  7  9  1  0
  9 10  1  6
 11 10  1  1
 11 12  1  0
 12 13  1  0
 13 14  1  6
 13 15  1  0
 15 16  1  0
 13 17  1  0
 17 18  1  1
 17 19  1  0
 19 20  1  0
 20 21  1  0
 20 22  1  0
 17 23  1  0
 23 24  1  6
 23 25  1  0
  9 26  1  0
 26 27  1  1
 26 28  1  0
 28 29  1  6
 30 29  1  1
 30 31  1  0
 31 32  1  0
 32 33  1  1
 32 34  1  0
 34 35  1  0
 35 36  1  1
 36 37  1  0
 36 38  1  0
 35 39  1  0
 39 40  1  6
 28 41  1  0
 41 42  1  6
 41 43  1  0
 41 44  1  0
 44 45  1  0
 45 46  1  6
 45 47  1  0
 47 48  1  0
 48 49  1  0
 49 50  1  1
 49 51  1  0
 51 52  1  6
 51 53  1  0
 53 54  1  6
 53 55  1  0
 53  3  1  0
 25 11  1  0
 39 30  1  0
M  END
>  <ChEMBL_IDs>  (432) 
CHEMBL2114267

>  <target_organism>  (432) 
Plasmodium falciparum

>  <target_molecule_pref_name>  (432) 
nan

>  <# Known Targets>  (432) 
nan

>  <Known Targets>  (432) 
nan

>  <smiles>  (432) 
CC[C@H]1OC(=O)[C@H](C)[C@@H](O[C@H]2C[C@@](C)(OC)[C@](O)(CN(C)C)[C@H](C)O2)[C@H](C)[C@@H](O[C@@H]2O[C@H](C)C[C@H](N(C)C)[C@H]2O)[C@](C)(O)C[C@@H](C)CN[C@H](C)[C@@H](O)[C@]1(C)O

$$$$

     RDKit          2D

 55 57  0  0  0  0  0  0  0  0999 V2000
    5.8573   -1.2990    0.0000 C   0  0  0  0  0  0  0  0  0  0  0  0
    5.1073    0.0000    0.0000 C   0  0  0  0  0  0  0  0  0  0  0  0
    3.6073    0.0000    0.0000 C   0  0  0  0  0  0  0  0  0  0  0  0
    3.2954    1.4672    0.0000 O   0  0  0  0  0  0  0  0  0  0  0  0
    2.4138    2.6807    0.0000 C   0  0  0  0  0  0  0  0  0  0  0  0
    3.4175    3.7955    0.0000 O   0  0  0  0  0  0  0  0  0  0  0  0
    1.1147    3.4307    0.0000 C   0  0  0  0  0  0  0  0  0  0  0  0
    1.8302    4.5756    0.0000 C   0  0  0  0  0  0  0  0  0  0  0  0
   -0.3771    3.5875    0.0000 C   0  0  0  0  0  0  0  0  0  0  0  0
   -0.5339    5.0793    0.0000 O   0  0  0  0  0  0  0  0  0  0  0  0
    0.6797    5.9610    0.0000 C   0  0  0  0  0  0  0  0  0  0  0  0
    0.5229    7.4528    0.0000 C   0  0  0  0  0  0  0  0  0  0  0  0
    1.7364    8.3345    0.0000 C   0  0  0  0  0  0  0  0  0  0  0  0
    2.5752    9.5780    0.0000 C   0  0  0  0  0  0  0  0  0  0  0  0
    0.6574    9.3764    0.0000 O   0  0  0  0  0  0  0  0  0  0  0  0
    1.0203   10.8319    0.0000 C   0  0  0  0  0  0  0  0  0  0  0  0
    3.1067    7.7244    0.0000 C   0  0  0  0  0  0  0  0  0  0  0  0
    3.4696    9.1798    0.0000 O   0  0  0  0  0  0  0  0  0  0  0  0
    4.6031    7.6197    0.0000 C   0  0  0  0  0  0  0  0  0  0  0  0
    5.4419    8.8633    0.0000 N   0  0  0  0  0  0  0  0  0  0  0  0
    6.9382    8.7586    0.0000 C   0  0  0  0  0  0  0  0  0  0  0  0
    4.7843   10.2115    0.0000 C   0  0  0  0  0  0  0  0  0  0  0  0
    3.2635    6.2326    0.0000 C   0  0  0  0  0  0  0  0  0  0  0  0
    4.6338    5.6225    0.0000 C   0  0  0  0  0  0  0  0  0  0  0  0
    2.0500    5.3509    0.0000 O   0  0  0  0  0  0  0  0  0  0  0  0
   -1.8037    3.1240    0.0000 C   0  0  0  0  0  0  0  0  0  0  0  0
   -2.5537    4.4231    0.0000 C   0  0  0  0  0  0  0  0  0  0  0  0
   -2.9184    2.1203    0.0000 C   0  0  0  0  0  0  0  0  0  0  0  0
   -4.1319    3.0020    0.0000 O   0  0  0  0  0  0  0  0  0  0  0  0
   -5.5022    2.3919    0.0000 C   0  0  0  0  0  0  0  0  0  0  0  0
   -6.7157    3.2736    0.0000 O   0  0  0  0  0  0  0  0  0  0  0  0
   -8.0861    2.6635    0.0000 C   0  0  0  0  0  0  0  0  0  0  0  0
   -9.2996    3.5451    0.0000 C   0  0  0  0  0  0  0  0  0  0  0  0
   -8.2428    1.1717    0.0000 C   0  0  0  0  0  0  0  0  0  0  0  0
   -7.0293    0.2900    0.0000 C   0  0  0  0  0  0  0  0  0  0  0  0
   -7.1861   -1.2018    0.0000 N   0  0  0  0  0  0  0  0  0  0  0  0
   -8.5564   -1.8119    0.0000 C   0  0  0  0  0  0  0  0  0  0  0  0
   -5.9726   -2.0835    0.0000 C   0  0  0  0  0  0  0  0  0  0  0  0
   -5.6590    0.9001    0.0000 C   0  0  0  0  0  0  0  0  0  0  0  0
   -5.0760    0.3564    0.0000 O   0  0  0  0  0  0  0  0  0  0  0  0
   -3.5285    0.7500    0.0000 C   0  0  0  0  0  0  0  0  0  0  0  0
   -4.2257    0.3635    0.0000 C   0  0  0  0  0  0  0  0  0  0  0  0
   -4.5705    1.8290    0.0000 O   0  0  0  0  0  0  0  0  0  0  0  0
   -3.5285   -0.7500    0.0000 C   0  0  0  0  0  0  0  0  0  0  0  0
   -2.9184   -2.1203    0.0000 C   0  0  0  0  0  0  0  0  0  0  0  0
   -4.1319   -3.0020    0.0000 C   0  0  0  0  0  0  0  0  0  0  0  0
   -1.8037   -3.1240    0.0000 C   0  0  0  0  0  0  0  0  0  0  0  0
   -0.3771   -3.5875    0.0000 N   0  0  0  0  0  0  0  0  0  0  0  0
    1.1147   -3.4307    0.0000 C   0  0  0  0  0  0  0  0  0  0  0  0
    1.5782   -4.8573    0.0000 C   0  0  0  0  0  0  0  0  0  0  0  0
    2.4138   -2.6807    0.0000 C   0  0  0  0  0  0  0  0  0  0  0  0
    3.4175   -3.7955    0.0000 O   0  0  0  0  0  0  0  0  0  0  0  0
    3.2954   -1.4672    0.0000 C   0  0  0  0  0  0  0  0  0  0  0  0
    4.7726   -1.2067    0.0000 C   0  0  0  0  0  0  0  0  0  0  0  0
    4.0903   -2.7393    0.0000 O   0  0  0  0  0  0  0  0  0  0  0  0
  1  2  1  0
  3  2  1  6
  3  4  1  0
  4  5  1  0
  5  6  2  0
  5  7  1  0
  7  8  1  1
  7  9  1  0
  9 10  1  6
 11 10  1  1
 11 12  1  0
 12 13  1  0
 13 14  1  6
 13 15  1  0
 15 16  1  0
 13 17  1  0
 17 18  1  6
 17 19  1  0
 19 20  1  0
 20 21  1  0
 20 22  1  0
 17 23  1  0
 23 24  1  6
 23 25  1  0
  9 26  1  0
 26 27  1  1
 26 28  1  0
 28 29  1  6
 30 29  1  1
 30 31  1  0
 31 32  1  0
 32 33  1  1
 32 34  1  0
 34 35  1  0
 35 36  1  1
 36 37  1  0
 36 38  1  0
 35 39  1  0
 39 40  1  6
 28 41  1  0
 41 42  1  6
 41 43  1  0
 41 44  1  0
 44 45  1  0
 45 46  1  6
 45 47  1  0
 47 48  1  0
 48 49  1  0
 49 50  1  1
 49 51  1  0
 51 52  1  6
 51 53  1  0
 53 54  1  6
 53 55  1  0
 53  3  1  0
 25 11  1  0
 39 30  1  0
M  END
>  <ChEMBL_IDs>  (433) 
CHEMBL2115255

>  <target_organism>  (433) 
Plasmodium falciparum

>  <target_molecule_pref_name>  (433) 
nan

>  <# Known Targets>  (433) 
nan

>  <Known Targets>  (433) 
nan

>  <smiles>  (433) 
CC[C@H]1OC(=O)[C@H](C)[C@@H](O[C@H]2C[C@@](C)(OC)[C@@](O)(CN(C)C)[C@H](C)O2)[C@H](C)[C@@H](O[C@@H]2O[C@H](C)C[C@H](N(C)C)[C@H]2O)[C@](C)(O)C[C@@H](C)CN[C@H](C)[C@@H](O)[C@]1(C)O

$$$$

     RDKit          2D

 57 59  0  0  0  0  0  0  0  0999 V2000
    6.0944   -3.8971    0.0000 C   0  0  0  0  0  0  0  0  0  0  0  0
    5.3444   -2.5981    0.0000 C   0  0  0  0  0  0  0  0  0  0  0  0
    6.0944   -1.2990    0.0000 C   0  0  0  0  0  0  0  0  0  0  0  0
    7.5944   -1.2990    0.0000 O   0  0  0  0  0  0  0  0  0  0  0  0
    5.3444   -0.0000    0.0000 O   0  0  0  0  0  0  0  0  0  0  0  0
    3.8444    0.0000    0.0000 C   0  0  0  0  0  0  0  0  0  0  0  0
    3.5517   -1.4712    0.0000 C   0  0  0  0  0  0  0  0  0  0  0  0
    2.7184   -2.7184    0.0000 C   0  0  0  0  0  0  0  0  0  0  0  0
    3.7790   -3.7790    0.0000 O   0  0  0  0  0  0  0  0  0  0  0  0
    1.4712   -3.5517    0.0000 O   0  0  0  0  0  0  0  0  0  0  0  0
   -0.0000   -3.8444    0.0000 C   0  0  0  0  0  0  0  0  0  0  0  0
   -0.0000   -5.3444    0.0000 C   0  0  0  0  0  0  0  0  0  0  0  0
   -1.4712   -3.5517    0.0000 C   0  0  0  0  0  0  0  0  0  0  0  0
   -2.7184   -2.7184    0.0000 C   0  0  0  0  0  0  0  0  0  0  0  0
   -3.5517   -1.4712    0.0000 C   0  0  0  0  0  0  0  0  0  0  0  0
   -3.8444    0.0000    0.0000 C   0  0  0  0  0  0  0  0  0  0  0  0
   -3.5517    1.4712    0.0000 C   0  0  0  0  0  0  0  0  0  0  0  0
   -2.7184    2.7184    0.0000 C   0  0  0  0  0  0  0  0  0  0  0  0
   -3.7790    3.7790    0.0000 O   0  0  0  0  0  0  0  0  0  0  0  0
   -1.4712    3.5517    0.0000 C   0  0  0  0  0  0  0  0  0  0  0  0
   -2.0452    4.9376    0.0000 C   0  0  0  0  0  0  0  0  0  0  0  0
    0.0000    3.8444    0.0000 C   0  0  0  0  0  0  0  0  0  0  0  0
    1.4712    3.5517    0.0000 C   0  0  0  0  0  0  0  0  0  0  0  0
    2.0452    4.9376    0.0000 C   0  0  0  0  0  0  0  0  0  0  0  0
    3.5324    5.1333    0.0000 C   0  0  0  0  0  0  0  0  0  0  0  0
    4.1064    6.5192    0.0000 O   0  0  0  0  0  0  0  0  0  0  0  0
    2.7184    2.7184    0.0000 C   0  0  0  0  0  0  0  0  0  0  0  0
    3.7790    3.7790    0.0000 O   0  0  0  0  0  0  0  0  0  0  0  0
    5.2279    3.3908    0.0000 C   0  0  0  0  0  0  0  0  0  0  0  0
    5.6162    1.9419    0.0000 O   0  0  0  0  0  0  0  0  0  0  0  0
    7.0650    1.5537    0.0000 C   0  0  0  0  0  0  0  0  0  0  0  0
    7.4533    0.1048    0.0000 C   0  0  0  0  0  0  0  0  0  0  0  0
    8.1257    2.6144    0.0000 C   0  0  0  0  0  0  0  0  0  0  0  0
    9.5746    2.2261    0.0000 O   0  0  0  0  0  0  0  0  0  0  0  0
    9.9628    0.7772    0.0000 C   0  0  0  0  0  0  0  0  0  0  0  0
   11.4117    0.3890    0.0000 C   0  0  0  0  0  0  0  0  0  0  0  0
   11.7999   -1.0599    0.0000 C   0  0  0  0  0  0  0  0  0  0  0  0
   12.6603   -2.2886    0.0000 C   0  0  0  0  0  0  0  0  0  0  0  0
   13.1594   -0.4260    0.0000 O   0  0  0  0  0  0  0  0  0  0  0  0
   10.7393   -2.1205    0.0000 C   0  0  0  0  0  0  0  0  0  0  0  0
   11.1275   -3.5694    0.0000 O   0  0  0  0  0  0  0  0  0  0  0  0
   10.0669   -4.6301    0.0000 C   0  0  0  0  0  0  0  0  0  0  0  0
    8.6180   -4.2419    0.0000 O   0  0  0  0  0  0  0  0  0  0  0  0
   10.4551   -6.0790    0.0000 C   0  0  0  0  0  0  0  0  0  0  0  0
    9.3944   -7.1396    0.0000 C   0  0  0  0  0  0  0  0  0  0  0  0
    9.2904   -1.7323    0.0000 C   0  0  0  0  0  0  0  0  0  0  0  0
    8.2297   -2.7930    0.0000 C   0  0  0  0  0  0  0  0  0  0  0  0
    8.9022   -0.2834    0.0000 O   0  0  0  0  0  0  0  0  0  0  0  0
    7.7375    4.0632    0.0000 C   0  0  0  0  0  0  0  0  0  0  0  0
    8.7981    5.1239    0.0000 N   0  0  0  0  0  0  0  0  0  0  0  0
    8.4099    6.5728    0.0000 C   0  0  0  0  0  0  0  0  0  0  0  0
   10.2470    4.7357    0.0000 C   0  0  0  0  0  0  0  0  0  0  0  0
    6.2886    4.4515    0.0000 C   0  0  0  0  0  0  0  0  0  0  0  0
    5.9004    5.9004    0.0000 O   0  0  0  0  0  0  0  0  0  0  0  0
    3.5517    1.4712    0.0000 C   0  0  0  0  0  0  0  0  0  0  0  0
    4.9376    2.0452    0.0000 O   0  0  0  0  0  0  0  0  0  0  0  0
    6.1276    1.1321    0.0000 C   0  0  0  0  0  0  0  0  0  0  0  0
  1  2  1  0
  2  3  1  0
  3  4  2  0
  3  5  1  0
  5  6  1  0
  6  7  1  0
  7  8  1  0
  8  9  2  0
  8 10  1  0
 10 11  1  0
 11 12  1  0
 11 13  1  0
 13 14  1  0
 14 15  2  0
 15 16  1  0
 16 17  2  0
 17 18  1  0
 18 19  2  0
 18 20  1  0
 20 21  1  0
 20 22  1  0
 22 23  1  0
 23 24  1  0
 24 25  1  0
 25 26  2  0
 23 27  1  0
 27 28  1  0
 28 29  1  0
 29 30  1  0
 30 31  1  0
 31 32  1  0
 31 33  1  0
 33 34  1  0
 34 35  1  0
 35 36  1  0
 36 37  1  0
 37 38  1  0
 37 39  1  0
 37 40  1  0
 40 41  1  0
 41 42  1  0
 42 43  2  0
 42 44  1  0
 44 45  1  0
 40 46  1  0
 46 47  1  0
 46 48  1  0
 33 49  1  0
 49 50  1  0
 50 51  1  0
 50 52  1  0
 49 53  1  0
 53 54  1  0
 27 55  1  0
 55 56  1  0
 56 57  1  0
 55  6  1  0
 53 29  1  0
 48 35  1  0
M  END
>  <ChEMBL_IDs>  (434) 
nan

>  <target_organism>  (434) 
nan

>  <target_molecule_pref_name>  (434) 
nan

>  <# Known Targets>  (434) 
nan

>  <Known Targets>  (434) 
nan

>  <smiles>  (434) 
CCC(=O)OC1CC(=O)OC(C)C/C=C\C=C/C(=O)C(C)CC(CC=O)C(OC2OC(C)C(OC3CC(C)(O)C(OC(=O)CC)C(C)O3)C(N(C)C)C2O)C1OC

$$$$

     RDKit          2D

 57 59  0  0  0  0  0  0  0  0999 V2000
    6.0944   -3.8971    0.0000 C   0  0  0  0  0  0  0  0  0  0  0  0
    5.3444   -2.5981    0.0000 C   0  0  0  0  0  0  0  0  0  0  0  0
    6.0944   -1.2990    0.0000 C   0  0  0  0  0  0  0  0  0  0  0  0
    7.5944   -1.2990    0.0000 O   0  0  0  0  0  0  0  0  0  0  0  0
    5.3444   -0.0000    0.0000 O   0  0  0  0  0  0  0  0  0  0  0  0
    3.8444    0.0000    0.0000 C   0  0  0  0  0  0  0  0  0  0  0  0
    3.5517   -1.4712    0.0000 C   0  0  0  0  0  0  0  0  0  0  0  0
    2.7184   -2.7184    0.0000 C   0  0  0  0  0  0  0  0  0  0  0  0
    3.7790   -3.7790    0.0000 O   0  0  0  0  0  0  0  0  0  0  0  0
    1.4712   -3.5517    0.0000 O   0  0  0  0  0  0  0  0  0  0  0  0
   -0.0000   -3.8444    0.0000 C   0  0  0  0  0  0  0  0  0  0  0  0
   -0.0000   -5.3444    0.0000 C   0  0  0  0  0  0  0  0  0  0  0  0
   -1.4712   -3.5517    0.0000 C   0  0  0  0  0  0  0  0  0  0  0  0
   -2.7184   -2.7184    0.0000 C   0  0  0  0  0  0  0  0  0  0  0  0
   -3.5517   -1.4712    0.0000 C   0  0  0  0  0  0  0  0  0  0  0  0
   -3.8444    0.0000    0.0000 C   0  0  0  0  0  0  0  0  0  0  0  0
   -3.5517    1.4712    0.0000 C   0  0  0  0  0  0  0  0  0  0  0  0
   -2.7184    2.7184    0.0000 C   0  0  0  0  0  0  0  0  0  0  0  0
   -3.7790    3.7790    0.0000 O   0  0  0  0  0  0  0  0  0  0  0  0
   -1.4712    3.5517    0.0000 C   0  0  0  0  0  0  0  0  0  0  0  0
   -2.0452    4.9376    0.0000 C   0  0  0  0  0  0  0  0  0  0  0  0
    0.0000    3.8444    0.0000 C   0  0  0  0  0  0  0  0  0  0  0  0
    1.4712    3.5517    0.0000 C   0  0  0  0  0  0  0  0  0  0  0  0
    2.0452    4.9376    0.0000 C   0  0  0  0  0  0  0  0  0  0  0  0
    3.5324    5.1333    0.0000 C   0  0  0  0  0  0  0  0  0  0  0  0
    4.1064    6.5192    0.0000 O   0  0  0  0  0  0  0  0  0  0  0  0
    2.7184    2.7184    0.0000 C   0  0  0  0  0  0  0  0  0  0  0  0
    3.7790    3.7790    0.0000 O   0  0  0  0  0  0  0  0  0  0  0  0
    5.2279    3.3908    0.0000 C   0  0  0  0  0  0  0  0  0  0  0  0
    5.6162    1.9419    0.0000 O   0  0  0  0  0  0  0  0  0  0  0  0
    7.0650    1.5537    0.0000 C   0  0  0  0  0  0  0  0  0  0  0  0
    7.4533    0.1048    0.0000 C   0  0  0  0  0  0  0  0  0  0  0  0
    8.1257    2.6144    0.0000 C   0  0  0  0  0  0  0  0  0  0  0  0
    9.5746    2.2261    0.0000 O   0  0  0  0  0  0  0  0  0  0  0  0
    9.9628    0.7772    0.0000 C   0  0  0  0  0  0  0  0  0  0  0  0
   11.4117    0.3890    0.0000 C   0  0  0  0  0  0  0  0  0  0  0  0
   11.7999   -1.0599    0.0000 C   0  0  0  0  0  0  0  0  0  0  0  0
   12.6603   -2.2886    0.0000 C   0  0  0  0  0  0  0  0  0  0  0  0
   13.1594   -0.4260    0.0000 O   0  0  0  0  0  0  0  0  0  0  0  0
   10.7393   -2.1205    0.0000 C   0  0  0  0  0  0  0  0  0  0  0  0
   11.1275   -3.5694    0.0000 O   0  0  0  0  0  0  0  0  0  0  0  0
   10.0669   -4.6301    0.0000 C   0  0  0  0  0  0  0  0  0  0  0  0
    8.6180   -4.2419    0.0000 O   0  0  0  0  0  0  0  0  0  0  0  0
   10.4551   -6.0790    0.0000 C   0  0  0  0  0  0  0  0  0  0  0  0
    9.3944   -7.1396    0.0000 C   0  0  0  0  0  0  0  0  0  0  0  0
    9.2904   -1.7323    0.0000 C   0  0  0  0  0  0  0  0  0  0  0  0
    8.2297   -2.7930    0.0000 C   0  0  0  0  0  0  0  0  0  0  0  0
    8.9022   -0.2834    0.0000 O   0  0  0  0  0  0  0  0  0  0  0  0
    7.7375    4.0632    0.0000 C   0  0  0  0  0  0  0  0  0  0  0  0
    8.7981    5.1239    0.0000 N   0  0  0  0  0  0  0  0  0  0  0  0
    8.4099    6.5728    0.0000 C   0  0  0  0  0  0  0  0  0  0  0  0
   10.2470    4.7357    0.0000 C   0  0  0  0  0  0  0  0  0  0  0  0
    6.2886    4.4515    0.0000 C   0  0  0  0  0  0  0  0  0  0  0  0
    5.9004    5.9004    0.0000 O   0  0  0  0  0  0  0  0  0  0  0  0
    3.5517    1.4712    0.0000 C   0  0  0  0  0  0  0  0  0  0  0  0
    4.9376    2.0452    0.0000 O   0  0  0  0  0  0  0  0  0  0  0  0
    6.1276    1.1321    0.0000 C   0  0  0  0  0  0  0  0  0  0  0  0
  1  2  1  0
  2  3  1  0
  3  4  2  0
  3  5  1  0
  5  6  1  0
  6  7  1  0
  7  8  1  0
  8  9  2  0
  8 10  1  0
 10 11  1  0
 11 12  1  0
 11 13  1  0
 13 14  1  0
 14 15  2  0
 15 16  1  0
 16 17  2  0
 17 18  1  0
 18 19  2  0
 18 20  1  0
 20 21  1  0
 20 22  1  0
 22 23  1  0
 23 24  1  0
 24 25  1  0
 25 26  2  0
 23 27  1  0
 27 28  1  0
 28 29  1  0
 29 30  1  0
 30 31  1  0
 31 32  1  0
 31 33  1  0
 33 34  1  0
 34 35  1  0
 35 36  1  0
 36 37  1  0
 37 38  1  0
 37 39  1  0
 37 40  1  0
 40 41  1  0
 41 42  1  0
 42 43  2  0
 42 44  1  0
 44 45  1  0
 40 46  1  0
 46 47  1  0
 46 48  1  0
 33 49  1  0
 49 50  1  0
 50 51  1  0
 50 52  1  0
 49 53  1  0
 53 54  1  0
 27 55  1  0
 55 56  1  0
 56 57  1  0
 55  6  1  0
 53 29  1  0
 48 35  1  0
M  END
>  <ChEMBL_IDs>  (435) 
nan

>  <target_organism>  (435) 
nan

>  <target_molecule_pref_name>  (435) 
nan

>  <# Known Targets>  (435) 
nan

>  <Known Targets>  (435) 
nan

>  <smiles>  (435) 
CCC(=O)OC1CC(=O)OC(C)C/C=C\C=C/C(=O)C(C)CC(CC=O)C(OC2OC(C)C(OC3CC(C)(O)C(OC(=O)CC)C(C)O3)C(N(C)C)C2O)C1OC

$$$$

     RDKit          2D

 57 59  0  0  0  0  0  0  0  0999 V2000
    6.0944   -3.8971    0.0000 C   0  0  0  0  0  0  0  0  0  0  0  0
    5.3444   -2.5981    0.0000 C   0  0  0  0  0  0  0  0  0  0  0  0
    6.0944   -1.2990    0.0000 C   0  0  0  0  0  0  0  0  0  0  0  0
    7.5944   -1.2990    0.0000 O   0  0  0  0  0  0  0  0  0  0  0  0
    5.3444   -0.0000    0.0000 O   0  0  0  0  0  0  0  0  0  0  0  0
    3.8444    0.0000    0.0000 C   0  0  0  0  0  0  0  0  0  0  0  0
    3.5517   -1.4712    0.0000 C   0  0  0  0  0  0  0  0  0  0  0  0
    2.7184   -2.7184    0.0000 C   0  0  0  0  0  0  0  0  0  0  0  0
    3.7790   -3.7790    0.0000 O   0  0  0  0  0  0  0  0  0  0  0  0
    1.4712   -3.5517    0.0000 O   0  0  0  0  0  0  0  0  0  0  0  0
   -0.0000   -3.8444    0.0000 C   0  0  0  0  0  0  0  0  0  0  0  0
   -0.0000   -5.3444    0.0000 C   0  0  0  0  0  0  0  0  0  0  0  0
   -1.4712   -3.5517    0.0000 C   0  0  0  0  0  0  0  0  0  0  0  0
   -2.7184   -2.7184    0.0000 C   0  0  0  0  0  0  0  0  0  0  0  0
   -3.5517   -1.4712    0.0000 C   0  0  0  0  0  0  0  0  0  0  0  0
   -3.8444    0.0000    0.0000 C   0  0  0  0  0  0  0  0  0  0  0  0
   -3.5517    1.4712    0.0000 C   0  0  0  0  0  0  0  0  0  0  0  0
   -2.7184    2.7184    0.0000 C   0  0  0  0  0  0  0  0  0  0  0  0
   -3.7790    3.7790    0.0000 O   0  0  0  0  0  0  0  0  0  0  0  0
   -1.4712    3.5517    0.0000 C   0  0  0  0  0  0  0  0  0  0  0  0
   -2.0452    4.9376    0.0000 C   0  0  0  0  0  0  0  0  0  0  0  0
    0.0000    3.8444    0.0000 C   0  0  0  0  0  0  0  0  0  0  0  0
    1.4712    3.5517    0.0000 C   0  0  0  0  0  0  0  0  0  0  0  0
    2.0452    4.9376    0.0000 C   0  0  0  0  0  0  0  0  0  0  0  0
    3.5324    5.1333    0.0000 C   0  0  0  0  0  0  0  0  0  0  0  0
    4.1064    6.5192    0.0000 O   0  0  0  0  0  0  0  0  0  0  0  0
    2.7184    2.7184    0.0000 C   0  0  0  0  0  0  0  0  0  0  0  0
    3.7790    3.7790    0.0000 O   0  0  0  0  0  0  0  0  0  0  0  0
    5.2279    3.3908    0.0000 C   0  0  0  0  0  0  0  0  0  0  0  0
    5.6162    1.9419    0.0000 O   0  0  0  0  0  0  0  0  0  0  0  0
    7.0650    1.5537    0.0000 C   0  0  0  0  0  0  0  0  0  0  0  0
    7.4533    0.1048    0.0000 C   0  0  0  0  0  0  0  0  0  0  0  0
    8.1257    2.6144    0.0000 C   0  0  0  0  0  0  0  0  0  0  0  0
    9.5746    2.2261    0.0000 O   0  0  0  0  0  0  0  0  0  0  0  0
    9.9628    0.7772    0.0000 C   0  0  0  0  0  0  0  0  0  0  0  0
   11.4117    0.3890    0.0000 C   0  0  0  0  0  0  0  0  0  0  0  0
   11.7999   -1.0599    0.0000 C   0  0  0  0  0  0  0  0  0  0  0  0
   12.6603   -2.2886    0.0000 C   0  0  0  0  0  0  0  0  0  0  0  0
   13.1594   -0.4260    0.0000 O   0  0  0  0  0  0  0  0  0  0  0  0
   10.7393   -2.1205    0.0000 C   0  0  0  0  0  0  0  0  0  0  0  0
   11.1275   -3.5694    0.0000 O   0  0  0  0  0  0  0  0  0  0  0  0
   10.0669   -4.6301    0.0000 C   0  0  0  0  0  0  0  0  0  0  0  0
    8.6180   -4.2419    0.0000 O   0  0  0  0  0  0  0  0  0  0  0  0
   10.4551   -6.0790    0.0000 C   0  0  0  0  0  0  0  0  0  0  0  0
    9.3944   -7.1396    0.0000 C   0  0  0  0  0  0  0  0  0  0  0  0
    9.2904   -1.7323    0.0000 C   0  0  0  0  0  0  0  0  0  0  0  0
    8.2297   -2.7930    0.0000 C   0  0  0  0  0  0  0  0  0  0  0  0
    8.9022   -0.2834    0.0000 O   0  0  0  0  0  0  0  0  0  0  0  0
    7.7375    4.0632    0.0000 C   0  0  0  0  0  0  0  0  0  0  0  0
    8.7981    5.1239    0.0000 N   0  0  0  0  0  0  0  0  0  0  0  0
    8.4099    6.5728    0.0000 C   0  0  0  0  0  0  0  0  0  0  0  0
   10.2470    4.7357    0.0000 C   0  0  0  0  0  0  0  0  0  0  0  0
    6.2886    4.4515    0.0000 C   0  0  0  0  0  0  0  0  0  0  0  0
    5.9004    5.9004    0.0000 O   0  0  0  0  0  0  0  0  0  0  0  0
    3.5517    1.4712    0.0000 C   0  0  0  0  0  0  0  0  0  0  0  0
    4.9376    2.0452    0.0000 O   0  0  0  0  0  0  0  0  0  0  0  0
    6.1276    1.1321    0.0000 C   0  0  0  0  0  0  0  0  0  0  0  0
  1  2  1  0
  2  3  1  0
  3  4  2  0
  3  5  1  0
  5  6  1  0
  6  7  1  0
  7  8  1  0
  8  9  2  0
  8 10  1  0
 10 11  1  0
 11 12  1  0
 11 13  1  0
 13 14  1  0
 14 15  2  0
 15 16  1  0
 16 17  2  0
 17 18  1  0
 18 19  2  0
 18 20  1  0
 20 21  1  0
 20 22  1  0
 22 23  1  0
 23 24  1  0
 24 25  1  0
 25 26  2  0
 23 27  1  0
 27 28  1  0
 28 29  1  0
 29 30  1  0
 30 31  1  0
 31 32  1  0
 31 33  1  0
 33 34  1  0
 34 35  1  0
 35 36  1  0
 36 37  1  0
 37 38  1  0
 37 39  1  0
 37 40  1  0
 40 41  1  0
 41 42  1  0
 42 43  2  0
 42 44  1  0
 44 45  1  0
 40 46  1  0
 46 47  1  0
 46 48  1  0
 33 49  1  0
 49 50  1  0
 50 51  1  0
 50 52  1  0
 49 53  1  0
 53 54  1  0
 27 55  1  0
 55 56  1  0
 56 57  1  0
 55  6  1  0
 53 29  1  0
 48 35  1  0
M  END
>  <ChEMBL_IDs>  (436) 
nan

>  <target_organism>  (436) 
nan

>  <target_molecule_pref_name>  (436) 
nan

>  <# Known Targets>  (436) 
nan

>  <Known Targets>  (436) 
nan

>  <smiles>  (436) 
CCC(=O)OC1CC(=O)OC(C)C/C=C\C=C/C(=O)C(C)CC(CC=O)C(OC2OC(C)C(OC3CC(C)(O)C(OC(=O)CC)C(C)O3)C(N(C)C)C2O)C1OC

$$$$

     RDKit          2D

 57 59  0  0  0  0  0  0  0  0999 V2000
    6.0944   -3.8971    0.0000 C   0  0  0  0  0  0  0  0  0  0  0  0
    5.3444   -2.5981    0.0000 C   0  0  0  0  0  0  0  0  0  0  0  0
    6.0944   -1.2990    0.0000 C   0  0  0  0  0  0  0  0  0  0  0  0
    7.5944   -1.2990    0.0000 O   0  0  0  0  0  0  0  0  0  0  0  0
    5.3444   -0.0000    0.0000 O   0  0  0  0  0  0  0  0  0  0  0  0
    3.8444    0.0000    0.0000 C   0  0  0  0  0  0  0  0  0  0  0  0
    3.5517   -1.4712    0.0000 C   0  0  0  0  0  0  0  0  0  0  0  0
    2.7184   -2.7184    0.0000 C   0  0  0  0  0  0  0  0  0  0  0  0
    3.7790   -3.7790    0.0000 O   0  0  0  0  0  0  0  0  0  0  0  0
    1.4712   -3.5517    0.0000 O   0  0  0  0  0  0  0  0  0  0  0  0
   -0.0000   -3.8444    0.0000 C   0  0  0  0  0  0  0  0  0  0  0  0
   -0.0000   -5.3444    0.0000 C   0  0  0  0  0  0  0  0  0  0  0  0
   -1.4712   -3.5517    0.0000 C   0  0  0  0  0  0  0  0  0  0  0  0
   -2.7184   -2.7184    0.0000 C   0  0  0  0  0  0  0  0  0  0  0  0
   -3.5517   -1.4712    0.0000 C   0  0  0  0  0  0  0  0  0  0  0  0
   -3.8444    0.0000    0.0000 C   0  0  0  0  0  0  0  0  0  0  0  0
   -3.5517    1.4712    0.0000 C   0  0  0  0  0  0  0  0  0  0  0  0
   -2.7184    2.7184    0.0000 C   0  0  0  0  0  0  0  0  0  0  0  0
   -3.7790    3.7790    0.0000 O   0  0  0  0  0  0  0  0  0  0  0  0
   -1.4712    3.5517    0.0000 C   0  0  0  0  0  0  0  0  0  0  0  0
   -2.0452    4.9376    0.0000 C   0  0  0  0  0  0  0  0  0  0  0  0
    0.0000    3.8444    0.0000 C   0  0  0  0  0  0  0  0  0  0  0  0
    1.4712    3.5517    0.0000 C   0  0  0  0  0  0  0  0  0  0  0  0
    2.0452    4.9376    0.0000 C   0  0  0  0  0  0  0  0  0  0  0  0
    3.5324    5.1333    0.0000 C   0  0  0  0  0  0  0  0  0  0  0  0
    4.1064    6.5192    0.0000 O   0  0  0  0  0  0  0  0  0  0  0  0
    2.7184    2.7184    0.0000 C   0  0  0  0  0  0  0  0  0  0  0  0
    3.7790    3.7790    0.0000 O   0  0  0  0  0  0  0  0  0  0  0  0
    5.2279    3.3908    0.0000 C   0  0  0  0  0  0  0  0  0  0  0  0
    5.6162    1.9419    0.0000 O   0  0  0  0  0  0  0  0  0  0  0  0
    7.0650    1.5537    0.0000 C   0  0  0  0  0  0  0  0  0  0  0  0
    7.4533    0.1048    0.0000 C   0  0  0  0  0  0  0  0  0  0  0  0
    8.1257    2.6144    0.0000 C   0  0  0  0  0  0  0  0  0  0  0  0
    9.5746    2.2261    0.0000 O   0  0  0  0  0  0  0  0  0  0  0  0
    9.9628    0.7772    0.0000 C   0  0  0  0  0  0  0  0  0  0  0  0
   11.4117    0.3890    0.0000 C   0  0  0  0  0  0  0  0  0  0  0  0
   11.7999   -1.0599    0.0000 C   0  0  0  0  0  0  0  0  0  0  0  0
   12.6603   -2.2886    0.0000 C   0  0  0  0  0  0  0  0  0  0  0  0
   13.1594   -0.4260    0.0000 O   0  0  0  0  0  0  0  0  0  0  0  0
   10.7393   -2.1205    0.0000 C   0  0  0  0  0  0  0  0  0  0  0  0
   11.1275   -3.5694    0.0000 O   0  0  0  0  0  0  0  0  0  0  0  0
   10.0669   -4.6301    0.0000 C   0  0  0  0  0  0  0  0  0  0  0  0
    8.6180   -4.2419    0.0000 O   0  0  0  0  0  0  0  0  0  0  0  0
   10.4551   -6.0790    0.0000 C   0  0  0  0  0  0  0  0  0  0  0  0
    9.3944   -7.1396    0.0000 C   0  0  0  0  0  0  0  0  0  0  0  0
    9.2904   -1.7323    0.0000 C   0  0  0  0  0  0  0  0  0  0  0  0
    8.2297   -2.7930    0.0000 C   0  0  0  0  0  0  0  0  0  0  0  0
    8.9022   -0.2834    0.0000 O   0  0  0  0  0  0  0  0  0  0  0  0
    7.7375    4.0632    0.0000 C   0  0  0  0  0  0  0  0  0  0  0  0
    8.7981    5.1239    0.0000 N   0  0  0  0  0  0  0  0  0  0  0  0
    8.4099    6.5728    0.0000 C   0  0  0  0  0  0  0  0  0  0  0  0
   10.2470    4.7357    0.0000 C   0  0  0  0  0  0  0  0  0  0  0  0
    6.2886    4.4515    0.0000 C   0  0  0  0  0  0  0  0  0  0  0  0
    5.9004    5.9004    0.0000 O   0  0  0  0  0  0  0  0  0  0  0  0
    3.5517    1.4712    0.0000 C   0  0  0  0  0  0  0  0  0  0  0  0
    4.9376    2.0452    0.0000 O   0  0  0  0  0  0  0  0  0  0  0  0
    6.1276    1.1321    0.0000 C   0  0  0  0  0  0  0  0  0  0  0  0
  1  2  1  0
  2  3  1  0
  3  4  2  0
  3  5  1  0
  5  6  1  0
  6  7  1  0
  7  8  1  0
  8  9  2  0
  8 10  1  0
 10 11  1  0
 11 12  1  0
 11 13  1  0
 13 14  1  0
 14 15  2  0
 15 16  1  0
 16 17  2  0
 17 18  1  0
 18 19  2  0
 18 20  1  0
 20 21  1  0
 20 22  1  0
 22 23  1  0
 23 24  1  0
 24 25  1  0
 25 26  2  0
 23 27  1  0
 27 28  1  0
 28 29  1  0
 29 30  1  0
 30 31  1  0
 31 32  1  0
 31 33  1  0
 33 34  1  0
 34 35  1  0
 35 36  1  0
 36 37  1  0
 37 38  1  0
 37 39  1  0
 37 40  1  0
 40 41  1  0
 41 42  1  0
 42 43  2  0
 42 44  1  0
 44 45  1  0
 40 46  1  0
 46 47  1  0
 46 48  1  0
 33 49  1  0
 49 50  1  0
 50 51  1  0
 50 52  1  0
 49 53  1  0
 53 54  1  0
 27 55  1  0
 55 56  1  0
 56 57  1  0
 55  6  1  0
 53 29  1  0
 48 35  1  0
M  END
>  <ChEMBL_IDs>  (437) 
nan

>  <target_organism>  (437) 
nan

>  <target_molecule_pref_name>  (437) 
nan

>  <# Known Targets>  (437) 
nan

>  <Known Targets>  (437) 
nan

>  <smiles>  (437) 
CCC(=O)OC1CC(=O)OC(C)C/C=C\C=C/C(=O)C(C)CC(CC=O)C(OC2OC(C)C(OC3CC(C)(O)C(OC(=O)CC)C(C)O3)C(N(C)C)C2O)C1OC

$$$$

     RDKit          2D

 57 59  0  0  0  0  0  0  0  0999 V2000
   16.4157   -9.6117    0.0000 C   0  0  0  0  0  0  0  0  0  0  0  0
   15.0299   -9.0377    0.0000 C   0  0  0  0  0  0  0  0  0  0  0  0
   13.8398   -9.9509    0.0000 C   0  0  0  0  0  0  0  0  0  0  0  0
   12.4540   -9.3768    0.0000 C   0  0  0  0  0  0  0  0  0  0  0  0
   12.2582   -7.8897    0.0000 O   0  0  0  0  0  0  0  0  0  0  0  0
   11.2640  -10.2900    0.0000 O   0  0  0  0  0  0  0  0  0  0  0  0
    9.8782   -9.7159    0.0000 C   0  0  0  0  0  0  0  0  0  0  0  0
    9.6824   -8.2288    0.0000 C   0  0  0  0  0  0  0  0  0  0  0  0
   10.8724   -7.3156    0.0000 C   0  0  0  0  0  0  0  0  0  0  0  0
    8.2966   -7.6548    0.0000 O   0  0  0  0  0  0  0  0  0  0  0  0
    7.1065   -8.5679    0.0000 C   0  0  0  0  0  0  0  0  0  0  0  0
    5.7207   -7.9939    0.0000 O   0  0  0  0  0  0  0  0  0  0  0  0
    5.5249   -6.5067    0.0000 C   0  0  0  0  0  0  0  0  0  0  0  0
    4.1391   -5.9327    0.0000 C   0  0  0  0  0  0  0  0  0  0  0  0
    2.9491   -6.8458    0.0000 C   0  0  0  0  0  0  0  0  0  0  0  0
    3.9433   -4.4455    0.0000 O   0  0  0  0  0  0  0  0  0  0  0  0
    5.1333   -3.5324    0.0000 C   0  0  0  0  0  0  0  0  0  0  0  0
    4.9376   -2.0452    0.0000 O   0  0  0  0  0  0  0  0  0  0  0  0
    3.5517   -1.4712    0.0000 C   0  0  0  0  0  0  0  0  0  0  0  0
    3.8444    0.0000    0.0000 C   0  0  0  0  0  0  0  0  0  0  0  0
    5.3444    0.0000    0.0000 C   0  0  0  0  0  0  0  0  0  0  0  0
    6.0944   -1.2990    0.0000 C   0  0  0  0  0  0  0  0  0  0  0  0
    7.5944   -1.2990    0.0000 O   0  0  0  0  0  0  0  0  0  0  0  0
    3.5517    1.4712    0.0000 C   0  0  0  0  0  0  0  0  0  0  0  0
    2.7184    2.7184    0.0000 C   0  0  0  0  0  0  0  0  0  0  0  0
    3.7790    3.7790    0.0000 C   0  0  0  0  0  0  0  0  0  0  0  0
    1.4712    3.5517    0.0000 C   0  0  0  0  0  0  0  0  0  0  0  0
    2.0452    4.9376    0.0000 O   0  0  0  0  0  0  0  0  0  0  0  0
    0.0000    3.8444    0.0000 C   0  0  0  0  0  0  0  0  0  0  0  0
   -1.4712    3.5517    0.0000 C   0  0  0  0  0  0  0  0  0  0  0  0
   -2.7184    2.7184    0.0000 C   0  0  0  0  0  0  0  0  0  0  0  0
   -3.5517    1.4712    0.0000 C   0  0  0  0  0  0  0  0  0  0  0  0
   -3.8444    0.0000    0.0000 C   0  0  0  0  0  0  0  0  0  0  0  0
   -3.5517   -1.4712    0.0000 C   0  0  0  0  0  0  0  0  0  0  0  0
   -4.9376   -2.0452    0.0000 C   0  0  0  0  0  0  0  0  0  0  0  0
   -2.7184   -2.7184    0.0000 O   0  0  0  0  0  0  0  0  0  0  0  0
   -1.4712   -3.5517    0.0000 C   0  0  0  0  0  0  0  0  0  0  0  0
   -2.0452   -4.9376    0.0000 O   0  0  0  0  0  0  0  0  0  0  0  0
   -0.0000   -3.8444    0.0000 C   0  0  0  0  0  0  0  0  0  0  0  0
    1.4712   -3.5517    0.0000 C   0  0  0  0  0  0  0  0  0  0  0  0
    2.0452   -4.9376    0.0000 O   0  0  0  0  0  0  0  0  0  0  0  0
    1.1321   -6.1276    0.0000 C   0  0  0  0  0  0  0  0  0  0  0  0
    1.7061   -7.5134    0.0000 C   0  0  0  0  0  0  0  0  0  0  0  0
   -0.3551   -5.9318    0.0000 O   0  0  0  0  0  0  0  0  0  0  0  0
    2.7184   -2.7184    0.0000 C   0  0  0  0  0  0  0  0  0  0  0  0
    3.7790   -3.7790    0.0000 O   0  0  0  0  0  0  0  0  0  0  0  0
    3.3908   -5.2279    0.0000 C   0  0  0  0  0  0  0  0  0  0  0  0
    6.5192   -4.1064    0.0000 C   0  0  0  0  0  0  0  0  0  0  0  0
    7.7092   -3.1933    0.0000 O   0  0  0  0  0  0  0  0  0  0  0  0
    6.7150   -5.5936    0.0000 C   0  0  0  0  0  0  0  0  0  0  0  0
    8.1008   -6.1676    0.0000 N   0  0  0  0  0  0  0  0  0  0  0  0
    8.6506   -7.5632    0.0000 C   0  0  0  0  0  0  0  0  0  0  0  0
    9.2908   -5.2544    0.0000 C   0  0  0  0  0  0  0  0  0  0  0  0
    7.3023  -10.0551    0.0000 C   0  0  0  0  0  0  0  0  0  0  0  0
    8.6881  -10.6291    0.0000 C   0  0  0  0  0  0  0  0  0  0  0  0
    7.8822  -11.8942    0.0000 C   0  0  0  0  0  0  0  0  0  0  0  0
    9.7941  -11.6425    0.0000 O   0  0  0  0  0  0  0  0  0  0  0  0
  1  2  1  0
  2  3  1  0
  3  4  1  0
  4  5  2  0
  4  6  1  0
  6  7  1  0
  7  8  1  0
  8  9  1  0
  8 10  1  0
 10 11  1  0
 11 12  1  0
 12 13  1  0
 13 14  1  0
 14 15  1  0
 14 16  1  0
 16 17  1  0
 17 18  1  0
 18 19  1  0
 19 20  1  0
 20 21  1  0
 21 22  1  0
 22 23  2  0
 20 24  1  0
 24 25  1  0
 25 26  1  0
 25 27  1  0
 27 28  1  0
 27 29  1  0
 29 30  2  0
 30 31  1  0
 31 32  2  0
 32 33  1  0
 33 34  1  0
 34 35  1  0
 34 36  1  0
 36 37  1  0
 37 38  2  0
 37 39  1  0
 39 40  1  0
 40 41  1  0
 41 42  1  0
 42 43  1  0
 42 44  2  0
 40 45  1  0
 45 46  1  0
 46 47  1  0
 17 48  1  0
 48 49  1  0
 48 50  1  0
 50 51  1  0
 51 52  1  0
 51 53  1  0
 11 54  1  0
 54 55  1  0
 55 56  1  0
 55 57  1  0
 55  7  1  0
 50 13  1  0
 45 19  1  0
M  END
>  <ChEMBL_IDs>  (438) 
nan

>  <target_organism>  (438) 
nan

>  <target_molecule_pref_name>  (438) 
nan

>  <# Known Targets>  (438) 
nan

>  <Known Targets>  (438) 
nan

>  <smiles>  (438) 
CCCC(=O)OC1C(C)OC(OC2C(C)OC(OC3C(CC=O)CC(C)C(O)/C=C\C=C/CC(C)OC(=O)CC(OC(C)=O)C3OC)C(O)C2N(C)C)CC1(C)O

$$$$

     RDKit          2D

 57 59  0  0  0  0  0  0  0  0999 V2000
   16.4157   -9.6117    0.0000 C   0  0  0  0  0  0  0  0  0  0  0  0
   15.0299   -9.0377    0.0000 C   0  0  0  0  0  0  0  0  0  0  0  0
   13.8398   -9.9509    0.0000 C   0  0  0  0  0  0  0  0  0  0  0  0
   12.4540   -9.3768    0.0000 C   0  0  0  0  0  0  0  0  0  0  0  0
   12.2582   -7.8897    0.0000 O   0  0  0  0  0  0  0  0  0  0  0  0
   11.2640  -10.2900    0.0000 O   0  0  0  0  0  0  0  0  0  0  0  0
    9.8782   -9.7159    0.0000 C   0  0  0  0  0  0  0  0  0  0  0  0
    9.6824   -8.2288    0.0000 C   0  0  0  0  0  0  0  0  0  0  0  0
   10.8724   -7.3156    0.0000 C   0  0  0  0  0  0  0  0  0  0  0  0
    8.2966   -7.6548    0.0000 O   0  0  0  0  0  0  0  0  0  0  0  0
    7.1065   -8.5679    0.0000 C   0  0  0  0  0  0  0  0  0  0  0  0
    5.7207   -7.9939    0.0000 O   0  0  0  0  0  0  0  0  0  0  0  0
    5.5249   -6.5067    0.0000 C   0  0  0  0  0  0  0  0  0  0  0  0
    4.1391   -5.9327    0.0000 C   0  0  0  0  0  0  0  0  0  0  0  0
    2.9491   -6.8458    0.0000 C   0  0  0  0  0  0  0  0  0  0  0  0
    3.9433   -4.4455    0.0000 O   0  0  0  0  0  0  0  0  0  0  0  0
    5.1333   -3.5324    0.0000 C   0  0  0  0  0  0  0  0  0  0  0  0
    4.9376   -2.0452    0.0000 O   0  0  0  0  0  0  0  0  0  0  0  0
    3.5517   -1.4712    0.0000 C   0  0  0  0  0  0  0  0  0  0  0  0
    3.8444    0.0000    0.0000 C   0  0  0  0  0  0  0  0  0  0  0  0
    5.3444    0.0000    0.0000 C   0  0  0  0  0  0  0  0  0  0  0  0
    6.0944   -1.2990    0.0000 C   0  0  0  0  0  0  0  0  0  0  0  0
    7.5944   -1.2990    0.0000 O   0  0  0  0  0  0  0  0  0  0  0  0
    3.5517    1.4712    0.0000 C   0  0  0  0  0  0  0  0  0  0  0  0
    2.7184    2.7184    0.0000 C   0  0  0  0  0  0  0  0  0  0  0  0
    3.7790    3.7790    0.0000 C   0  0  0  0  0  0  0  0  0  0  0  0
    1.4712    3.5517    0.0000 C   0  0  0  0  0  0  0  0  0  0  0  0
    2.0452    4.9376    0.0000 O   0  0  0  0  0  0  0  0  0  0  0  0
    0.0000    3.8444    0.0000 C   0  0  0  0  0  0  0  0  0  0  0  0
   -1.4712    3.5517    0.0000 C   0  0  0  0  0  0  0  0  0  0  0  0
   -2.7184    2.7184    0.0000 C   0  0  0  0  0  0  0  0  0  0  0  0
   -3.5517    1.4712    0.0000 C   0  0  0  0  0  0  0  0  0  0  0  0
   -3.8444    0.0000    0.0000 C   0  0  0  0  0  0  0  0  0  0  0  0
   -3.5517   -1.4712    0.0000 C   0  0  0  0  0  0  0  0  0  0  0  0
   -4.9376   -2.0452    0.0000 C   0  0  0  0  0  0  0  0  0  0  0  0
   -2.7184   -2.7184    0.0000 O   0  0  0  0  0  0  0  0  0  0  0  0
   -1.4712   -3.5517    0.0000 C   0  0  0  0  0  0  0  0  0  0  0  0
   -2.0452   -4.9376    0.0000 O   0  0  0  0  0  0  0  0  0  0  0  0
   -0.0000   -3.8444    0.0000 C   0  0  0  0  0  0  0  0  0  0  0  0
    1.4712   -3.5517    0.0000 C   0  0  0  0  0  0  0  0  0  0  0  0
    2.0452   -4.9376    0.0000 O   0  0  0  0  0  0  0  0  0  0  0  0
    1.1321   -6.1276    0.0000 C   0  0  0  0  0  0  0  0  0  0  0  0
    1.7061   -7.5134    0.0000 C   0  0  0  0  0  0  0  0  0  0  0  0
   -0.3551   -5.9318    0.0000 O   0  0  0  0  0  0  0  0  0  0  0  0
    2.7184   -2.7184    0.0000 C   0  0  0  0  0  0  0  0  0  0  0  0
    3.7790   -3.7790    0.0000 O   0  0  0  0  0  0  0  0  0  0  0  0
    3.3908   -5.2279    0.0000 C   0  0  0  0  0  0  0  0  0  0  0  0
    6.5192   -4.1064    0.0000 C   0  0  0  0  0  0  0  0  0  0  0  0
    7.7092   -3.1933    0.0000 O   0  0  0  0  0  0  0  0  0  0  0  0
    6.7150   -5.5936    0.0000 C   0  0  0  0  0  0  0  0  0  0  0  0
    8.1008   -6.1676    0.0000 N   0  0  0  0  0  0  0  0  0  0  0  0
    8.6506   -7.5632    0.0000 C   0  0  0  0  0  0  0  0  0  0  0  0
    9.2908   -5.2544    0.0000 C   0  0  0  0  0  0  0  0  0  0  0  0
    7.3023  -10.0551    0.0000 C   0  0  0  0  0  0  0  0  0  0  0  0
    8.6881  -10.6291    0.0000 C   0  0  0  0  0  0  0  0  0  0  0  0
    7.8822  -11.8942    0.0000 C   0  0  0  0  0  0  0  0  0  0  0  0
    9.7941  -11.6425    0.0000 O   0  0  0  0  0  0  0  0  0  0  0  0
  1  2  1  0
  2  3  1  0
  3  4  1  0
  4  5  2  0
  4  6  1  0
  6  7  1  0
  7  8  1  0
  8  9  1  0
  8 10  1  0
 10 11  1  0
 11 12  1  0
 12 13  1  0
 13 14  1  0
 14 15  1  0
 14 16  1  0
 16 17  1  0
 17 18  1  0
 18 19  1  0
 19 20  1  0
 20 21  1  0
 21 22  1  0
 22 23  2  0
 20 24  1  0
 24 25  1  0
 25 26  1  0
 25 27  1  0
 27 28  1  0
 27 29  1  0
 29 30  2  0
 30 31  1  0
 31 32  2  0
 32 33  1  0
 33 34  1  0
 34 35  1  0
 34 36  1  0
 36 37  1  0
 37 38  2  0
 37 39  1  0
 39 40  1  0
 40 41  1  0
 41 42  1  0
 42 43  1  0
 42 44  2  0
 40 45  1  0
 45 46  1  0
 46 47  1  0
 17 48  1  0
 48 49  1  0
 48 50  1  0
 50 51  1  0
 51 52  1  0
 51 53  1  0
 11 54  1  0
 54 55  1  0
 55 56  1  0
 55 57  1  0
 55  7  1  0
 50 13  1  0
 45 19  1  0
M  END
>  <ChEMBL_IDs>  (439) 
nan

>  <target_organism>  (439) 
nan

>  <target_molecule_pref_name>  (439) 
nan

>  <# Known Targets>  (439) 
nan

>  <Known Targets>  (439) 
nan

>  <smiles>  (439) 
CCCC(=O)OC1C(C)OC(OC2C(C)OC(OC3C(CC=O)CC(C)C(O)/C=C\C=C/CC(C)OC(=O)CC(OC(C)=O)C3OC)C(O)C2N(C)C)CC1(C)O

$$$$

     RDKit          2D

 57 59  0  0  0  0  0  0  0  0999 V2000
   16.4157   -9.6117    0.0000 C   0  0  0  0  0  0  0  0  0  0  0  0
   15.0299   -9.0377    0.0000 C   0  0  0  0  0  0  0  0  0  0  0  0
   13.8398   -9.9509    0.0000 C   0  0  0  0  0  0  0  0  0  0  0  0
   12.4540   -9.3768    0.0000 C   0  0  0  0  0  0  0  0  0  0  0  0
   12.2582   -7.8897    0.0000 O   0  0  0  0  0  0  0  0  0  0  0  0
   11.2640  -10.2900    0.0000 O   0  0  0  0  0  0  0  0  0  0  0  0
    9.8782   -9.7159    0.0000 C   0  0  0  0  0  0  0  0  0  0  0  0
    9.6824   -8.2288    0.0000 C   0  0  0  0  0  0  0  0  0  0  0  0
   10.8724   -7.3156    0.0000 C   0  0  0  0  0  0  0  0  0  0  0  0
    8.2966   -7.6548    0.0000 O   0  0  0  0  0  0  0  0  0  0  0  0
    7.1065   -8.5679    0.0000 C   0  0  0  0  0  0  0  0  0  0  0  0
    5.7207   -7.9939    0.0000 O   0  0  0  0  0  0  0  0  0  0  0  0
    5.5249   -6.5067    0.0000 C   0  0  0  0  0  0  0  0  0  0  0  0
    4.1391   -5.9327    0.0000 C   0  0  0  0  0  0  0  0  0  0  0  0
    2.9491   -6.8458    0.0000 C   0  0  0  0  0  0  0  0  0  0  0  0
    3.9433   -4.4455    0.0000 O   0  0  0  0  0  0  0  0  0  0  0  0
    5.1333   -3.5324    0.0000 C   0  0  0  0  0  0  0  0  0  0  0  0
    4.9376   -2.0452    0.0000 O   0  0  0  0  0  0  0  0  0  0  0  0
    3.5517   -1.4712    0.0000 C   0  0  0  0  0  0  0  0  0  0  0  0
    3.8444    0.0000    0.0000 C   0  0  0  0  0  0  0  0  0  0  0  0
    5.3444    0.0000    0.0000 C   0  0  0  0  0  0  0  0  0  0  0  0
    6.0944   -1.2990    0.0000 C   0  0  0  0  0  0  0  0  0  0  0  0
    7.5944   -1.2990    0.0000 O   0  0  0  0  0  0  0  0  0  0  0  0
    3.5517    1.4712    0.0000 C   0  0  0  0  0  0  0  0  0  0  0  0
    2.7184    2.7184    0.0000 C   0  0  0  0  0  0  0  0  0  0  0  0
    3.7790    3.7790    0.0000 C   0  0  0  0  0  0  0  0  0  0  0  0
    1.4712    3.5517    0.0000 C   0  0  0  0  0  0  0  0  0  0  0  0
    2.0452    4.9376    0.0000 O   0  0  0  0  0  0  0  0  0  0  0  0
    0.0000    3.8444    0.0000 C   0  0  0  0  0  0  0  0  0  0  0  0
   -1.4712    3.5517    0.0000 C   0  0  0  0  0  0  0  0  0  0  0  0
   -2.7184    2.7184    0.0000 C   0  0  0  0  0  0  0  0  0  0  0  0
   -3.5517    1.4712    0.0000 C   0  0  0  0  0  0  0  0  0  0  0  0
   -3.8444    0.0000    0.0000 C   0  0  0  0  0  0  0  0  0  0  0  0
   -3.5517   -1.4712    0.0000 C   0  0  0  0  0  0  0  0  0  0  0  0
   -4.9376   -2.0452    0.0000 C   0  0  0  0  0  0  0  0  0  0  0  0
   -2.7184   -2.7184    0.0000 O   0  0  0  0  0  0  0  0  0  0  0  0
   -1.4712   -3.5517    0.0000 C   0  0  0  0  0  0  0  0  0  0  0  0
   -2.0452   -4.9376    0.0000 O   0  0  0  0  0  0  0  0  0  0  0  0
   -0.0000   -3.8444    0.0000 C   0  0  0  0  0  0  0  0  0  0  0  0
    1.4712   -3.5517    0.0000 C   0  0  0  0  0  0  0  0  0  0  0  0
    2.0452   -4.9376    0.0000 O   0  0  0  0  0  0  0  0  0  0  0  0
    1.1321   -6.1276    0.0000 C   0  0  0  0  0  0  0  0  0  0  0  0
    1.7061   -7.5134    0.0000 C   0  0  0  0  0  0  0  0  0  0  0  0
   -0.3551   -5.9318    0.0000 O   0  0  0  0  0  0  0  0  0  0  0  0
    2.7184   -2.7184    0.0000 C   0  0  0  0  0  0  0  0  0  0  0  0
    3.7790   -3.7790    0.0000 O   0  0  0  0  0  0  0  0  0  0  0  0
    3.3908   -5.2279    0.0000 C   0  0  0  0  0  0  0  0  0  0  0  0
    6.5192   -4.1064    0.0000 C   0  0  0  0  0  0  0  0  0  0  0  0
    7.7092   -3.1933    0.0000 O   0  0  0  0  0  0  0  0  0  0  0  0
    6.7150   -5.5936    0.0000 C   0  0  0  0  0  0  0  0  0  0  0  0
    8.1008   -6.1676    0.0000 N   0  0  0  0  0  0  0  0  0  0  0  0
    8.6506   -7.5632    0.0000 C   0  0  0  0  0  0  0  0  0  0  0  0
    9.2908   -5.2544    0.0000 C   0  0  0  0  0  0  0  0  0  0  0  0
    7.3023  -10.0551    0.0000 C   0  0  0  0  0  0  0  0  0  0  0  0
    8.6881  -10.6291    0.0000 C   0  0  0  0  0  0  0  0  0  0  0  0
    7.8822  -11.8942    0.0000 C   0  0  0  0  0  0  0  0  0  0  0  0
    9.7941  -11.6425    0.0000 O   0  0  0  0  0  0  0  0  0  0  0  0
  1  2  1  0
  2  3  1  0
  3  4  1  0
  4  5  2  0
  4  6  1  0
  6  7  1  0
  7  8  1  0
  8  9  1  0
  8 10  1  0
 10 11  1  0
 11 12  1  0
 12 13  1  0
 13 14  1  0
 14 15  1  0
 14 16  1  0
 16 17  1  0
 17 18  1  0
 18 19  1  0
 19 20  1  0
 20 21  1  0
 21 22  1  0
 22 23  2  0
 20 24  1  0
 24 25  1  0
 25 26  1  0
 25 27  1  0
 27 28  1  0
 27 29  1  0
 29 30  2  0
 30 31  1  0
 31 32  2  0
 32 33  1  0
 33 34  1  0
 34 35  1  0
 34 36  1  0
 36 37  1  0
 37 38  2  0
 37 39  1  0
 39 40  1  0
 40 41  1  0
 41 42  1  0
 42 43  1  0
 42 44  2  0
 40 45  1  0
 45 46  1  0
 46 47  1  0
 17 48  1  0
 48 49  1  0
 48 50  1  0
 50 51  1  0
 51 52  1  0
 51 53  1  0
 11 54  1  0
 54 55  1  0
 55 56  1  0
 55 57  1  0
 55  7  1  0
 50 13  1  0
 45 19  1  0
M  END
>  <ChEMBL_IDs>  (440) 
nan

>  <target_organism>  (440) 
nan

>  <target_molecule_pref_name>  (440) 
nan

>  <# Known Targets>  (440) 
nan

>  <Known Targets>  (440) 
nan

>  <smiles>  (440) 
CCCC(=O)OC1C(C)OC(OC2C(C)OC(OC3C(CC=O)CC(C)C(O)/C=C\C=C/CC(C)OC(=O)CC(OC(C)=O)C3OC)C(O)C2N(C)C)CC1(C)O

$$$$

     RDKit          2D

 57 59  0  0  0  0  0  0  0  0999 V2000
    6.0944   -3.8971    0.0000 C   0  0  0  0  0  0  0  0  0  0  0  0
    5.3444   -2.5981    0.0000 C   0  0  0  0  0  0  0  0  0  0  0  0
    6.0944   -1.2990    0.0000 C   0  0  0  0  0  0  0  0  0  0  0  0
    7.5944   -1.2990    0.0000 O   0  0  0  0  0  0  0  0  0  0  0  0
    5.3444   -0.0000    0.0000 O   0  0  0  0  0  0  0  0  0  0  0  0
    3.8444    0.0000    0.0000 C   0  0  0  0  0  0  0  0  0  0  0  0
    3.5517   -1.4712    0.0000 C   0  0  0  0  0  0  0  0  0  0  0  0
    2.7184   -2.7184    0.0000 C   0  0  0  0  0  0  0  0  0  0  0  0
    3.7790   -3.7790    0.0000 O   0  0  0  0  0  0  0  0  0  0  0  0
    1.4712   -3.5517    0.0000 O   0  0  0  0  0  0  0  0  0  0  0  0
   -0.0000   -3.8444    0.0000 C   0  0  0  0  0  0  0  0  0  0  0  0
   -0.0000   -5.3444    0.0000 C   0  0  0  0  0  0  0  0  0  0  0  0
   -1.4712   -3.5517    0.0000 C   0  0  0  0  0  0  0  0  0  0  0  0
   -2.7184   -2.7184    0.0000 C   0  0  0  0  0  0  0  0  0  0  0  0
   -3.5517   -1.4712    0.0000 C   0  0  0  0  0  0  0  0  0  0  0  0
   -3.8444    0.0000    0.0000 C   0  0  0  0  0  0  0  0  0  0  0  0
   -3.5517    1.4712    0.0000 C   0  0  0  0  0  0  0  0  0  0  0  0
   -2.7184    2.7184    0.0000 C   0  0  0  0  0  0  0  0  0  0  0  0
   -3.7790    3.7790    0.0000 O   0  0  0  0  0  0  0  0  0  0  0  0
   -1.4712    3.5517    0.0000 C   0  0  0  0  0  0  0  0  0  0  0  0
   -2.0452    4.9376    0.0000 C   0  0  0  0  0  0  0  0  0  0  0  0
    0.0000    3.8444    0.0000 C   0  0  0  0  0  0  0  0  0  0  0  0
    1.4712    3.5517    0.0000 C   0  0  0  0  0  0  0  0  0  0  0  0
    2.0452    4.9376    0.0000 C   0  0  0  0  0  0  0  0  0  0  0  0
    3.5324    5.1333    0.0000 C   0  0  0  0  0  0  0  0  0  0  0  0
    4.1064    6.5192    0.0000 O   0  0  0  0  0  0  0  0  0  0  0  0
    2.7184    2.7184    0.0000 C   0  0  0  0  0  0  0  0  0  0  0  0
    3.7790    3.7790    0.0000 O   0  0  0  0  0  0  0  0  0  0  0  0
    5.2279    3.3908    0.0000 C   0  0  0  0  0  0  0  0  0  0  0  0
    5.6162    1.9419    0.0000 O   0  0  0  0  0  0  0  0  0  0  0  0
    7.0650    1.5537    0.0000 C   0  0  0  0  0  0  0  0  0  0  0  0
    7.4533    0.1048    0.0000 C   0  0  0  0  0  0  0  0  0  0  0  0
    8.1257    2.6144    0.0000 C   0  0  0  0  0  0  0  0  0  0  0  0
    9.5746    2.2261    0.0000 O   0  0  0  0  0  0  0  0  0  0  0  0
    9.9628    0.7772    0.0000 C   0  0  0  0  0  0  0  0  0  0  0  0
   11.4117    0.3890    0.0000 C   0  0  0  0  0  0  0  0  0  0  0  0
   11.7999   -1.0599    0.0000 C   0  0  0  0  0  0  0  0  0  0  0  0
   12.6603   -2.2886    0.0000 C   0  0  0  0  0  0  0  0  0  0  0  0
   13.1594   -0.4260    0.0000 O   0  0  0  0  0  0  0  0  0  0  0  0
   10.7393   -2.1205    0.0000 C   0  0  0  0  0  0  0  0  0  0  0  0
   11.1275   -3.5694    0.0000 O   0  0  0  0  0  0  0  0  0  0  0  0
   10.0669   -4.6301    0.0000 C   0  0  0  0  0  0  0  0  0  0  0  0
    8.6180   -4.2419    0.0000 O   0  0  0  0  0  0  0  0  0  0  0  0
   10.4551   -6.0790    0.0000 C   0  0  0  0  0  0  0  0  0  0  0  0
    9.3944   -7.1396    0.0000 C   0  0  0  0  0  0  0  0  0  0  0  0
    9.2904   -1.7323    0.0000 C   0  0  0  0  0  0  0  0  0  0  0  0
    8.2297   -2.7930    0.0000 C   0  0  0  0  0  0  0  0  0  0  0  0
    8.9022   -0.2834    0.0000 O   0  0  0  0  0  0  0  0  0  0  0  0
    7.7375    4.0632    0.0000 C   0  0  0  0  0  0  0  0  0  0  0  0
    8.7981    5.1239    0.0000 N   0  0  0  0  0  0  0  0  0  0  0  0
    8.4099    6.5728    0.0000 C   0  0  0  0  0  0  0  0  0  0  0  0
   10.2470    4.7357    0.0000 C   0  0  0  0  0  0  0  0  0  0  0  0
    6.2886    4.4515    0.0000 C   0  0  0  0  0  0  0  0  0  0  0  0
    5.9004    5.9004    0.0000 O   0  0  0  0  0  0  0  0  0  0  0  0
    3.5517    1.4712    0.0000 C   0  0  0  0  0  0  0  0  0  0  0  0
    4.9376    2.0452    0.0000 O   0  0  0  0  0  0  0  0  0  0  0  0
    6.1276    1.1321    0.0000 C   0  0  0  0  0  0  0  0  0  0  0  0
  1  2  1  0
  2  3  1  0
  3  4  2  0
  3  5  1  0
  5  6  1  0
  6  7  1  0
  7  8  1  0
  8  9  2  0
  8 10  1  0
 10 11  1  0
 11 12  1  0
 11 13  1  0
 13 14  1  0
 14 15  2  0
 15 16  1  0
 16 17  2  0
 17 18  1  0
 18 19  1  0
 18 20  1  0
 20 21  1  0
 20 22  1  0
 22 23  1  0
 23 24  1  0
 24 25  1  0
 25 26  2  0
 23 27  1  0
 27 28  1  0
 28 29  1  0
 29 30  1  0
 30 31  1  0
 31 32  1  0
 31 33  1  0
 33 34  1  0
 34 35  1  0
 35 36  1  0
 36 37  1  0
 37 38  1  0
 37 39  1  0
 37 40  1  0
 40 41  1  0
 41 42  1  0
 42 43  2  0
 42 44  1  0
 44 45  1  0
 40 46  1  0
 46 47  1  0
 46 48  1  0
 33 49  1  0
 49 50  1  0
 50 51  1  0
 50 52  1  0
 49 53  1  0
 53 54  1  0
 27 55  1  0
 55 56  1  0
 56 57  1  0
 55  6  1  0
 53 29  1  0
 48 35  1  0
M  END
>  <ChEMBL_IDs>  (441) 
nan

>  <target_organism>  (441) 
nan

>  <target_molecule_pref_name>  (441) 
nan

>  <# Known Targets>  (441) 
nan

>  <Known Targets>  (441) 
nan

>  <smiles>  (441) 
CCC(=O)OC1CC(=O)OC(C)C/C=C/C=C/C(O)C(C)CC(CC=O)C(OC2OC(C)C(OC3CC(C)(O)C(OC(=O)CC)C(C)O3)C(N(C)C)C2O)C1OC

$$$$

     RDKit          2D

 57 59  0  0  0  0  0  0  0  0999 V2000
    6.0944   -3.8971    0.0000 C   0  0  0  0  0  0  0  0  0  0  0  0
    5.3444   -2.5981    0.0000 C   0  0  0  0  0  0  0  0  0  0  0  0
    6.0944   -1.2990    0.0000 C   0  0  0  0  0  0  0  0  0  0  0  0
    7.5944   -1.2990    0.0000 O   0  0  0  0  0  0  0  0  0  0  0  0
    5.3444   -0.0000    0.0000 O   0  0  0  0  0  0  0  0  0  0  0  0
    3.8444    0.0000    0.0000 C   0  0  0  0  0  0  0  0  0  0  0  0
    3.5517   -1.4712    0.0000 C   0  0  0  0  0  0  0  0  0  0  0  0
    2.7184   -2.7184    0.0000 C   0  0  0  0  0  0  0  0  0  0  0  0
    3.7790   -3.7790    0.0000 O   0  0  0  0  0  0  0  0  0  0  0  0
    1.4712   -3.5517    0.0000 O   0  0  0  0  0  0  0  0  0  0  0  0
   -0.0000   -3.8444    0.0000 C   0  0  0  0  0  0  0  0  0  0  0  0
   -0.0000   -5.3444    0.0000 C   0  0  0  0  0  0  0  0  0  0  0  0
   -1.4712   -3.5517    0.0000 C   0  0  0  0  0  0  0  0  0  0  0  0
   -2.7184   -2.7184    0.0000 C   0  0  0  0  0  0  0  0  0  0  0  0
   -3.5517   -1.4712    0.0000 C   0  0  0  0  0  0  0  0  0  0  0  0
   -3.8444    0.0000    0.0000 C   0  0  0  0  0  0  0  0  0  0  0  0
   -3.5517    1.4712    0.0000 C   0  0  0  0  0  0  0  0  0  0  0  0
   -2.7184    2.7184    0.0000 C   0  0  0  0  0  0  0  0  0  0  0  0
   -3.7790    3.7790    0.0000 O   0  0  0  0  0  0  0  0  0  0  0  0
   -1.4712    3.5517    0.0000 C   0  0  0  0  0  0  0  0  0  0  0  0
   -2.0452    4.9376    0.0000 C   0  0  0  0  0  0  0  0  0  0  0  0
    0.0000    3.8444    0.0000 C   0  0  0  0  0  0  0  0  0  0  0  0
    1.4712    3.5517    0.0000 C   0  0  0  0  0  0  0  0  0  0  0  0
    2.0452    4.9376    0.0000 C   0  0  0  0  0  0  0  0  0  0  0  0
    3.5324    5.1333    0.0000 C   0  0  0  0  0  0  0  0  0  0  0  0
    4.1064    6.5192    0.0000 O   0  0  0  0  0  0  0  0  0  0  0  0
    2.7184    2.7184    0.0000 C   0  0  0  0  0  0  0  0  0  0  0  0
    3.7790    3.7790    0.0000 O   0  0  0  0  0  0  0  0  0  0  0  0
    5.2279    3.3908    0.0000 C   0  0  0  0  0  0  0  0  0  0  0  0
    5.6162    1.9419    0.0000 O   0  0  0  0  0  0  0  0  0  0  0  0
    7.0650    1.5537    0.0000 C   0  0  0  0  0  0  0  0  0  0  0  0
    7.4533    0.1048    0.0000 C   0  0  0  0  0  0  0  0  0  0  0  0
    8.1257    2.6144    0.0000 C   0  0  0  0  0  0  0  0  0  0  0  0
    9.5746    2.2261    0.0000 O   0  0  0  0  0  0  0  0  0  0  0  0
    9.9628    0.7772    0.0000 C   0  0  0  0  0  0  0  0  0  0  0  0
   11.4117    0.3890    0.0000 C   0  0  0  0  0  0  0  0  0  0  0  0
   11.7999   -1.0599    0.0000 C   0  0  0  0  0  0  0  0  0  0  0  0
   12.6603   -2.2886    0.0000 C   0  0  0  0  0  0  0  0  0  0  0  0
   13.1594   -0.4260    0.0000 O   0  0  0  0  0  0  0  0  0  0  0  0
   10.7393   -2.1205    0.0000 C   0  0  0  0  0  0  0  0  0  0  0  0
   11.1275   -3.5694    0.0000 O   0  0  0  0  0  0  0  0  0  0  0  0
   10.0669   -4.6301    0.0000 C   0  0  0  0  0  0  0  0  0  0  0  0
    8.6180   -4.2419    0.0000 O   0  0  0  0  0  0  0  0  0  0  0  0
   10.4551   -6.0790    0.0000 C   0  0  0  0  0  0  0  0  0  0  0  0
    9.3944   -7.1396    0.0000 C   0  0  0  0  0  0  0  0  0  0  0  0
    9.2904   -1.7323    0.0000 C   0  0  0  0  0  0  0  0  0  0  0  0
    8.2297   -2.7930    0.0000 C   0  0  0  0  0  0  0  0  0  0  0  0
    8.9022   -0.2834    0.0000 O   0  0  0  0  0  0  0  0  0  0  0  0
    7.7375    4.0632    0.0000 C   0  0  0  0  0  0  0  0  0  0  0  0
    8.7981    5.1239    0.0000 N   0  0  0  0  0  0  0  0  0  0  0  0
    8.4099    6.5728    0.0000 C   0  0  0  0  0  0  0  0  0  0  0  0
   10.2470    4.7357    0.0000 C   0  0  0  0  0  0  0  0  0  0  0  0
    6.2886    4.4515    0.0000 C   0  0  0  0  0  0  0  0  0  0  0  0
    5.9004    5.9004    0.0000 O   0  0  0  0  0  0  0  0  0  0  0  0
    3.5517    1.4712    0.0000 C   0  0  0  0  0  0  0  0  0  0  0  0
    4.9376    2.0452    0.0000 O   0  0  0  0  0  0  0  0  0  0  0  0
    6.1276    1.1321    0.0000 C   0  0  0  0  0  0  0  0  0  0  0  0
  1  2  1  0
  2  3  1  0
  3  4  2  0
  3  5  1  0
  5  6  1  0
  6  7  1  0
  7  8  1  0
  8  9  2  0
  8 10  1  0
 10 11  1  0
 11 12  1  0
 11 13  1  0
 13 14  1  0
 14 15  2  0
 15 16  1  0
 16 17  2  0
 17 18  1  0
 18 19  1  0
 18 20  1  0
 20 21  1  0
 20 22  1  0
 22 23  1  0
 23 24  1  0
 24 25  1  0
 25 26  2  0
 23 27  1  0
 27 28  1  0
 28 29  1  0
 29 30  1  0
 30 31  1  0
 31 32  1  0
 31 33  1  0
 33 34  1  0
 34 35  1  0
 35 36  1  0
 36 37  1  0
 37 38  1  0
 37 39  1  0
 37 40  1  0
 40 41  1  0
 41 42  1  0
 42 43  2  0
 42 44  1  0
 44 45  1  0
 40 46  1  0
 46 47  1  0
 46 48  1  0
 33 49  1  0
 49 50  1  0
 50 51  1  0
 50 52  1  0
 49 53  1  0
 53 54  1  0
 27 55  1  0
 55 56  1  0
 56 57  1  0
 55  6  1  0
 53 29  1  0
 48 35  1  0
M  END
>  <ChEMBL_IDs>  (442) 
nan

>  <target_organism>  (442) 
nan

>  <target_molecule_pref_name>  (442) 
nan

>  <# Known Targets>  (442) 
nan

>  <Known Targets>  (442) 
nan

>  <smiles>  (442) 
CCC(=O)OC1CC(=O)OC(C)C/C=C\C=C/C(O)C(C)CC(CC=O)C(OC2OC(C)C(OC3CC(C)(O)C(OC(=O)CC)C(C)O3)C(N(C)C)C2O)C1OC

$$$$

     RDKit          2D

 57 59  0  0  0  0  0  0  0  0999 V2000
    6.0944   -3.8971    0.0000 C   0  0  0  0  0  0  0  0  0  0  0  0
    5.3444   -2.5981    0.0000 C   0  0  0  0  0  0  0  0  0  0  0  0
    6.0944   -1.2990    0.0000 C   0  0  0  0  0  0  0  0  0  0  0  0
    7.5944   -1.2990    0.0000 O   0  0  0  0  0  0  0  0  0  0  0  0
    5.3444   -0.0000    0.0000 O   0  0  0  0  0  0  0  0  0  0  0  0
    3.8444    0.0000    0.0000 C   0  0  0  0  0  0  0  0  0  0  0  0
    3.5517   -1.4712    0.0000 C   0  0  0  0  0  0  0  0  0  0  0  0
    2.7184   -2.7184    0.0000 C   0  0  0  0  0  0  0  0  0  0  0  0
    3.7790   -3.7790    0.0000 O   0  0  0  0  0  0  0  0  0  0  0  0
    1.4712   -3.5517    0.0000 O   0  0  0  0  0  0  0  0  0  0  0  0
   -0.0000   -3.8444    0.0000 C   0  0  0  0  0  0  0  0  0  0  0  0
   -0.0000   -5.3444    0.0000 C   0  0  0  0  0  0  0  0  0  0  0  0
   -1.4712   -3.5517    0.0000 C   0  0  0  0  0  0  0  0  0  0  0  0
   -2.7184   -2.7184    0.0000 C   0  0  0  0  0  0  0  0  0  0  0  0
   -3.5517   -1.4712    0.0000 C   0  0  0  0  0  0  0  0  0  0  0  0
   -3.8444    0.0000    0.0000 C   0  0  0  0  0  0  0  0  0  0  0  0
   -3.5517    1.4712    0.0000 C   0  0  0  0  0  0  0  0  0  0  0  0
   -2.7184    2.7184    0.0000 C   0  0  0  0  0  0  0  0  0  0  0  0
   -3.7790    3.7790    0.0000 O   0  0  0  0  0  0  0  0  0  0  0  0
   -1.4712    3.5517    0.0000 C   0  0  0  0  0  0  0  0  0  0  0  0
   -2.0452    4.9376    0.0000 C   0  0  0  0  0  0  0  0  0  0  0  0
    0.0000    3.8444    0.0000 C   0  0  0  0  0  0  0  0  0  0  0  0
    1.4712    3.5517    0.0000 C   0  0  0  0  0  0  0  0  0  0  0  0
    2.0452    4.9376    0.0000 C   0  0  0  0  0  0  0  0  0  0  0  0
    3.5324    5.1333    0.0000 C   0  0  0  0  0  0  0  0  0  0  0  0
    4.1064    6.5192    0.0000 O   0  0  0  0  0  0  0  0  0  0  0  0
    2.7184    2.7184    0.0000 C   0  0  0  0  0  0  0  0  0  0  0  0
    3.7790    3.7790    0.0000 O   0  0  0  0  0  0  0  0  0  0  0  0
    5.2279    3.3908    0.0000 C   0  0  0  0  0  0  0  0  0  0  0  0
    5.6162    1.9419    0.0000 O   0  0  0  0  0  0  0  0  0  0  0  0
    7.0650    1.5537    0.0000 C   0  0  0  0  0  0  0  0  0  0  0  0
    7.4533    0.1048    0.0000 C   0  0  0  0  0  0  0  0  0  0  0  0
    8.1257    2.6144    0.0000 C   0  0  0  0  0  0  0  0  0  0  0  0
    9.5746    2.2261    0.0000 O   0  0  0  0  0  0  0  0  0  0  0  0
    9.9628    0.7772    0.0000 C   0  0  0  0  0  0  0  0  0  0  0  0
   11.4117    0.3890    0.0000 C   0  0  0  0  0  0  0  0  0  0  0  0
   11.7999   -1.0599    0.0000 C   0  0  0  0  0  0  0  0  0  0  0  0
   12.6603   -2.2886    0.0000 C   0  0  0  0  0  0  0  0  0  0  0  0
   13.1594   -0.4260    0.0000 O   0  0  0  0  0  0  0  0  0  0  0  0
   10.7393   -2.1205    0.0000 C   0  0  0  0  0  0  0  0  0  0  0  0
   11.1275   -3.5694    0.0000 O   0  0  0  0  0  0  0  0  0  0  0  0
   10.0669   -4.6301    0.0000 C   0  0  0  0  0  0  0  0  0  0  0  0
    8.6180   -4.2419    0.0000 O   0  0  0  0  0  0  0  0  0  0  0  0
   10.4551   -6.0790    0.0000 C   0  0  0  0  0  0  0  0  0  0  0  0
    9.3944   -7.1396    0.0000 C   0  0  0  0  0  0  0  0  0  0  0  0
    9.2904   -1.7323    0.0000 C   0  0  0  0  0  0  0  0  0  0  0  0
    8.2297   -2.7930    0.0000 C   0  0  0  0  0  0  0  0  0  0  0  0
    8.9022   -0.2834    0.0000 O   0  0  0  0  0  0  0  0  0  0  0  0
    7.7375    4.0632    0.0000 C   0  0  0  0  0  0  0  0  0  0  0  0
    8.7981    5.1239    0.0000 N   0  0  0  0  0  0  0  0  0  0  0  0
    8.4099    6.5728    0.0000 C   0  0  0  0  0  0  0  0  0  0  0  0
   10.2470    4.7357    0.0000 C   0  0  0  0  0  0  0  0  0  0  0  0
    6.2886    4.4515    0.0000 C   0  0  0  0  0  0  0  0  0  0  0  0
    5.9004    5.9004    0.0000 O   0  0  0  0  0  0  0  0  0  0  0  0
    3.5517    1.4712    0.0000 C   0  0  0  0  0  0  0  0  0  0  0  0
    4.9376    2.0452    0.0000 O   0  0  0  0  0  0  0  0  0  0  0  0
    6.1276    1.1321    0.0000 C   0  0  0  0  0  0  0  0  0  0  0  0
  1  2  1  0
  2  3  1  0
  3  4  2  0
  3  5  1  0
  5  6  1  0
  6  7  1  0
  7  8  1  0
  8  9  2  0
  8 10  1  0
 10 11  1  0
 11 12  1  0
 11 13  1  0
 13 14  1  0
 14 15  2  0
 15 16  1  0
 16 17  2  0
 17 18  1  0
 18 19  1  0
 18 20  1  0
 20 21  1  0
 20 22  1  0
 22 23  1  0
 23 24  1  0
 24 25  1  0
 25 26  2  0
 23 27  1  0
 27 28  1  0
 28 29  1  0
 29 30  1  0
 30 31  1  0
 31 32  1  0
 31 33  1  0
 33 34  1  0
 34 35  1  0
 35 36  1  0
 36 37  1  0
 37 38  1  0
 37 39  1  0
 37 40  1  0
 40 41  1  0
 41 42  1  0
 42 43  2  0
 42 44  1  0
 44 45  1  0
 40 46  1  0
 46 47  1  0
 46 48  1  0
 33 49  1  0
 49 50  1  0
 50 51  1  0
 50 52  1  0
 49 53  1  0
 53 54  1  0
 27 55  1  0
 55 56  1  0
 56 57  1  0
 55  6  1  0
 53 29  1  0
 48 35  1  0
M  END
>  <ChEMBL_IDs>  (443) 
nan

>  <target_organism>  (443) 
nan

>  <target_molecule_pref_name>  (443) 
nan

>  <# Known Targets>  (443) 
nan

>  <Known Targets>  (443) 
nan

>  <smiles>  (443) 
CCC(=O)OC1CC(=O)OC(C)C/C=C\C=C/C(O)C(C)CC(CC=O)C(OC2OC(C)C(OC3CC(C)(O)C(OC(=O)CC)C(C)O3)C(N(C)C)C2O)C1OC

$$$$

     RDKit          2D

 57 59  0  0  0  0  0  0  0  0999 V2000
    6.0944   -3.8971    0.0000 C   0  0  0  0  0  0  0  0  0  0  0  0
    5.3444   -2.5981    0.0000 C   0  0  0  0  0  0  0  0  0  0  0  0
    6.0944   -1.2990    0.0000 C   0  0  0  0  0  0  0  0  0  0  0  0
    7.5944   -1.2990    0.0000 O   0  0  0  0  0  0  0  0  0  0  0  0
    5.3444   -0.0000    0.0000 O   0  0  0  0  0  0  0  0  0  0  0  0
    3.8444    0.0000    0.0000 C   0  0  0  0  0  0  0  0  0  0  0  0
    3.5517   -1.4712    0.0000 C   0  0  0  0  0  0  0  0  0  0  0  0
    2.7184   -2.7184    0.0000 C   0  0  0  0  0  0  0  0  0  0  0  0
    3.7790   -3.7790    0.0000 O   0  0  0  0  0  0  0  0  0  0  0  0
    1.4712   -3.5517    0.0000 O   0  0  0  0  0  0  0  0  0  0  0  0
   -0.0000   -3.8444    0.0000 C   0  0  0  0  0  0  0  0  0  0  0  0
   -0.0000   -5.3444    0.0000 C   0  0  0  0  0  0  0  0  0  0  0  0
   -1.4712   -3.5517    0.0000 C   0  0  0  0  0  0  0  0  0  0  0  0
   -2.7184   -2.7184    0.0000 C   0  0  0  0  0  0  0  0  0  0  0  0
   -3.5517   -1.4712    0.0000 C   0  0  0  0  0  0  0  0  0  0  0  0
   -3.8444    0.0000    0.0000 C   0  0  0  0  0  0  0  0  0  0  0  0
   -3.5517    1.4712    0.0000 C   0  0  0  0  0  0  0  0  0  0  0  0
   -2.7184    2.7184    0.0000 C   0  0  0  0  0  0  0  0  0  0  0  0
   -3.7790    3.7790    0.0000 O   0  0  0  0  0  0  0  0  0  0  0  0
   -1.4712    3.5517    0.0000 C   0  0  0  0  0  0  0  0  0  0  0  0
   -2.0452    4.9376    0.0000 C   0  0  0  0  0  0  0  0  0  0  0  0
    0.0000    3.8444    0.0000 C   0  0  0  0  0  0  0  0  0  0  0  0
    1.4712    3.5517    0.0000 C   0  0  0  0  0  0  0  0  0  0  0  0
    2.0452    4.9376    0.0000 C   0  0  0  0  0  0  0  0  0  0  0  0
    3.5324    5.1333    0.0000 C   0  0  0  0  0  0  0  0  0  0  0  0
    4.1064    6.5192    0.0000 O   0  0  0  0  0  0  0  0  0  0  0  0
    2.7184    2.7184    0.0000 C   0  0  0  0  0  0  0  0  0  0  0  0
    3.7790    3.7790    0.0000 O   0  0  0  0  0  0  0  0  0  0  0  0
    5.2279    3.3908    0.0000 C   0  0  0  0  0  0  0  0  0  0  0  0
    5.6162    1.9419    0.0000 O   0  0  0  0  0  0  0  0  0  0  0  0
    7.0650    1.5537    0.0000 C   0  0  0  0  0  0  0  0  0  0  0  0
    7.4533    0.1048    0.0000 C   0  0  0  0  0  0  0  0  0  0  0  0
    8.1257    2.6144    0.0000 C   0  0  0  0  0  0  0  0  0  0  0  0
    9.5746    2.2261    0.0000 O   0  0  0  0  0  0  0  0  0  0  0  0
    9.9628    0.7772    0.0000 C   0  0  0  0  0  0  0  0  0  0  0  0
   11.4117    0.3890    0.0000 C   0  0  0  0  0  0  0  0  0  0  0  0
   11.7999   -1.0599    0.0000 C   0  0  0  0  0  0  0  0  0  0  0  0
   12.6603   -2.2886    0.0000 C   0  0  0  0  0  0  0  0  0  0  0  0
   13.1594   -0.4260    0.0000 O   0  0  0  0  0  0  0  0  0  0  0  0
   10.7393   -2.1205    0.0000 C   0  0  0  0  0  0  0  0  0  0  0  0
   11.1275   -3.5694    0.0000 O   0  0  0  0  0  0  0  0  0  0  0  0
   10.0669   -4.6301    0.0000 C   0  0  0  0  0  0  0  0  0  0  0  0
    8.6180   -4.2419    0.0000 O   0  0  0  0  0  0  0  0  0  0  0  0
   10.4551   -6.0790    0.0000 C   0  0  0  0  0  0  0  0  0  0  0  0
    9.3944   -7.1396    0.0000 C   0  0  0  0  0  0  0  0  0  0  0  0
    9.2904   -1.7323    0.0000 C   0  0  0  0  0  0  0  0  0  0  0  0
    8.2297   -2.7930    0.0000 C   0  0  0  0  0  0  0  0  0  0  0  0
    8.9022   -0.2834    0.0000 O   0  0  0  0  0  0  0  0  0  0  0  0
    7.7375    4.0632    0.0000 C   0  0  0  0  0  0  0  0  0  0  0  0
    8.7981    5.1239    0.0000 N   0  0  0  0  0  0  0  0  0  0  0  0
    8.4099    6.5728    0.0000 C   0  0  0  0  0  0  0  0  0  0  0  0
   10.2470    4.7357    0.0000 C   0  0  0  0  0  0  0  0  0  0  0  0
    6.2886    4.4515    0.0000 C   0  0  0  0  0  0  0  0  0  0  0  0
    5.9004    5.9004    0.0000 O   0  0  0  0  0  0  0  0  0  0  0  0
    3.5517    1.4712    0.0000 C   0  0  0  0  0  0  0  0  0  0  0  0
    4.9376    2.0452    0.0000 O   0  0  0  0  0  0  0  0  0  0  0  0
    6.1276    1.1321    0.0000 C   0  0  0  0  0  0  0  0  0  0  0  0
  1  2  1  0
  2  3  1  0
  3  4  2  0
  3  5  1  0
  5  6  1  0
  6  7  1  0
  7  8  1  0
  8  9  2  0
  8 10  1  0
 10 11  1  0
 11 12  1  0
 11 13  1  0
 13 14  1  0
 14 15  2  0
 15 16  1  0
 16 17  2  0
 17 18  1  0
 18 19  1  0
 18 20  1  0
 20 21  1  0
 20 22  1  0
 22 23  1  0
 23 24  1  0
 24 25  1  0
 25 26  2  0
 23 27  1  0
 27 28  1  0
 28 29  1  0
 29 30  1  0
 30 31  1  0
 31 32  1  0
 31 33  1  0
 33 34  1  0
 34 35  1  0
 35 36  1  0
 36 37  1  0
 37 38  1  0
 37 39  1  0
 37 40  1  0
 40 41  1  0
 41 42  1  0
 42 43  2  0
 42 44  1  0
 44 45  1  0
 40 46  1  0
 46 47  1  0
 46 48  1  0
 33 49  1  0
 49 50  1  0
 50 51  1  0
 50 52  1  0
 49 53  1  0
 53 54  1  0
 27 55  1  0
 55 56  1  0
 56 57  1  0
 55  6  1  0
 53 29  1  0
 48 35  1  0
M  END
>  <ChEMBL_IDs>  (444) 
nan

>  <target_organism>  (444) 
nan

>  <target_molecule_pref_name>  (444) 
nan

>  <# Known Targets>  (444) 
nan

>  <Known Targets>  (444) 
nan

>  <smiles>  (444) 
CCC(=O)OC1CC(=O)OC(C)C/C=C\C=C/C(O)C(C)CC(CC=O)C(OC2OC(C)C(OC3CC(C)(O)C(OC(=O)CC)C(C)O3)C(N(C)C)C2O)C1OC

$$$$

     RDKit          2D

 57 59  0  0  0  0  0  0  0  0999 V2000
    6.0944   -3.8971    0.0000 C   0  0  0  0  0  0  0  0  0  0  0  0
    5.3444   -2.5981    0.0000 C   0  0  0  0  0  0  0  0  0  0  0  0
    6.0944   -1.2990    0.0000 C   0  0  0  0  0  0  0  0  0  0  0  0
    7.5944   -1.2990    0.0000 O   0  0  0  0  0  0  0  0  0  0  0  0
    5.3444   -0.0000    0.0000 O   0  0  0  0  0  0  0  0  0  0  0  0
    3.8444    0.0000    0.0000 C   0  0  0  0  0  0  0  0  0  0  0  0
    3.5517   -1.4712    0.0000 C   0  0  0  0  0  0  0  0  0  0  0  0
    2.7184   -2.7184    0.0000 C   0  0  0  0  0  0  0  0  0  0  0  0
    3.7790   -3.7790    0.0000 O   0  0  0  0  0  0  0  0  0  0  0  0
    1.4712   -3.5517    0.0000 O   0  0  0  0  0  0  0  0  0  0  0  0
   -0.0000   -3.8444    0.0000 C   0  0  0  0  0  0  0  0  0  0  0  0
   -0.0000   -5.3444    0.0000 C   0  0  0  0  0  0  0  0  0  0  0  0
   -1.4712   -3.5517    0.0000 C   0  0  0  0  0  0  0  0  0  0  0  0
   -2.7184   -2.7184    0.0000 C   0  0  0  0  0  0  0  0  0  0  0  0
   -3.5517   -1.4712    0.0000 C   0  0  0  0  0  0  0  0  0  0  0  0
   -3.8444    0.0000    0.0000 C   0  0  0  0  0  0  0  0  0  0  0  0
   -3.5517    1.4712    0.0000 C   0  0  0  0  0  0  0  0  0  0  0  0
   -2.7184    2.7184    0.0000 C   0  0  0  0  0  0  0  0  0  0  0  0
   -3.7790    3.7790    0.0000 O   0  0  0  0  0  0  0  0  0  0  0  0
   -1.4712    3.5517    0.0000 C   0  0  0  0  0  0  0  0  0  0  0  0
   -2.0452    4.9376    0.0000 C   0  0  0  0  0  0  0  0  0  0  0  0
    0.0000    3.8444    0.0000 C   0  0  0  0  0  0  0  0  0  0  0  0
    1.4712    3.5517    0.0000 C   0  0  0  0  0  0  0  0  0  0  0  0
    2.0452    4.9376    0.0000 C   0  0  0  0  0  0  0  0  0  0  0  0
    3.5324    5.1333    0.0000 C   0  0  0  0  0  0  0  0  0  0  0  0
    4.1064    6.5192    0.0000 O   0  0  0  0  0  0  0  0  0  0  0  0
    2.7184    2.7184    0.0000 C   0  0  0  0  0  0  0  0  0  0  0  0
    3.7790    3.7790    0.0000 O   0  0  0  0  0  0  0  0  0  0  0  0
    5.2279    3.3908    0.0000 C   0  0  0  0  0  0  0  0  0  0  0  0
    5.6162    1.9419    0.0000 O   0  0  0  0  0  0  0  0  0  0  0  0
    7.0650    1.5537    0.0000 C   0  0  0  0  0  0  0  0  0  0  0  0
    7.4533    0.1048    0.0000 C   0  0  0  0  0  0  0  0  0  0  0  0
    8.1257    2.6144    0.0000 C   0  0  0  0  0  0  0  0  0  0  0  0
    9.5746    2.2261    0.0000 O   0  0  0  0  0  0  0  0  0  0  0  0
    9.9628    0.7772    0.0000 C   0  0  0  0  0  0  0  0  0  0  0  0
   11.4117    0.3890    0.0000 C   0  0  0  0  0  0  0  0  0  0  0  0
   11.7999   -1.0599    0.0000 C   0  0  0  0  0  0  0  0  0  0  0  0
   12.6603   -2.2886    0.0000 C   0  0  0  0  0  0  0  0  0  0  0  0
   13.1594   -0.4260    0.0000 O   0  0  0  0  0  0  0  0  0  0  0  0
   10.7393   -2.1205    0.0000 C   0  0  0  0  0  0  0  0  0  0  0  0
   11.1275   -3.5694    0.0000 O   0  0  0  0  0  0  0  0  0  0  0  0
   10.0669   -4.6301    0.0000 C   0  0  0  0  0  0  0  0  0  0  0  0
    8.6180   -4.2419    0.0000 O   0  0  0  0  0  0  0  0  0  0  0  0
   10.4551   -6.0790    0.0000 C   0  0  0  0  0  0  0  0  0  0  0  0
    9.3944   -7.1396    0.0000 C   0  0  0  0  0  0  0  0  0  0  0  0
    9.2904   -1.7323    0.0000 C   0  0  0  0  0  0  0  0  0  0  0  0
    8.2297   -2.7930    0.0000 C   0  0  0  0  0  0  0  0  0  0  0  0
    8.9022   -0.2834    0.0000 O   0  0  0  0  0  0  0  0  0  0  0  0
    7.7375    4.0632    0.0000 C   0  0  0  0  0  0  0  0  0  0  0  0
    8.7981    5.1239    0.0000 N   0  0  0  0  0  0  0  0  0  0  0  0
    8.4099    6.5728    0.0000 C   0  0  0  0  0  0  0  0  0  0  0  0
   10.2470    4.7357    0.0000 C   0  0  0  0  0  0  0  0  0  0  0  0
    6.2886    4.4515    0.0000 C   0  0  0  0  0  0  0  0  0  0  0  0
    5.9004    5.9004    0.0000 O   0  0  0  0  0  0  0  0  0  0  0  0
    3.5517    1.4712    0.0000 C   0  0  0  0  0  0  0  0  0  0  0  0
    4.9376    2.0452    0.0000 O   0  0  0  0  0  0  0  0  0  0  0  0
    6.1276    1.1321    0.0000 C   0  0  0  0  0  0  0  0  0  0  0  0
  1  2  1  0
  2  3  1  0
  3  4  2  0
  3  5  1  0
  5  6  1  0
  6  7  1  0
  7  8  1  0
  8  9  2  0
  8 10  1  0
 10 11  1  0
 11 12  1  0
 11 13  1  0
 13 14  1  0
 14 15  2  0
 15 16  1  0
 16 17  2  0
 17 18  1  0
 18 19  1  0
 18 20  1  0
 20 21  1  0
 20 22  1  0
 22 23  1  0
 23 24  1  0
 24 25  1  0
 25 26  2  0
 23 27  1  0
 27 28  1  0
 28 29  1  0
 29 30  1  0
 30 31  1  0
 31 32  1  0
 31 33  1  0
 33 34  1  0
 34 35  1  0
 35 36  1  0
 36 37  1  0
 37 38  1  0
 37 39  1  0
 37 40  1  0
 40 41  1  0
 41 42  1  0
 42 43  2  0
 42 44  1  0
 44 45  1  0
 40 46  1  0
 46 47  1  0
 46 48  1  0
 33 49  1  0
 49 50  1  0
 50 51  1  0
 50 52  1  0
 49 53  1  0
 53 54  1  0
 27 55  1  0
 55 56  1  0
 56 57  1  0
 55  6  1  0
 53 29  1  0
 48 35  1  0
M  END
>  <ChEMBL_IDs>  (445) 
nan

>  <target_organism>  (445) 
nan

>  <target_molecule_pref_name>  (445) 
nan

>  <# Known Targets>  (445) 
nan

>  <Known Targets>  (445) 
nan

>  <smiles>  (445) 
CCC(=O)OC1CC(=O)OC(C)C/C=C\C=C/C(O)C(C)CC(CC=O)C(OC2OC(C)C(OC3CC(C)(O)C(OC(=O)CC)C(C)O3)C(N(C)C)C2O)C1OC

$$$$

     RDKit          2D

 57 59  0  0  0  0  0  0  0  0999 V2000
    6.0944   -3.8971    0.0000 C   0  0  0  0  0  0  0  0  0  0  0  0
    5.3444   -2.5981    0.0000 C   0  0  0  0  0  0  0  0  0  0  0  0
    6.0944   -1.2990    0.0000 C   0  0  0  0  0  0  0  0  0  0  0  0
    7.5944   -1.2990    0.0000 O   0  0  0  0  0  0  0  0  0  0  0  0
    5.3444   -0.0000    0.0000 O   0  0  0  0  0  0  0  0  0  0  0  0
    3.8444    0.0000    0.0000 C   0  0  0  0  0  0  0  0  0  0  0  0
    3.5517   -1.4712    0.0000 C   0  0  0  0  0  0  0  0  0  0  0  0
    2.7184   -2.7184    0.0000 C   0  0  0  0  0  0  0  0  0  0  0  0
    3.7790   -3.7790    0.0000 O   0  0  0  0  0  0  0  0  0  0  0  0
    1.4712   -3.5517    0.0000 O   0  0  0  0  0  0  0  0  0  0  0  0
   -0.0000   -3.8444    0.0000 C   0  0  0  0  0  0  0  0  0  0  0  0
   -0.0000   -5.3444    0.0000 C   0  0  0  0  0  0  0  0  0  0  0  0
   -1.4712   -3.5517    0.0000 C   0  0  0  0  0  0  0  0  0  0  0  0
   -2.7184   -2.7184    0.0000 C   0  0  0  0  0  0  0  0  0  0  0  0
   -3.5517   -1.4712    0.0000 C   0  0  0  0  0  0  0  0  0  0  0  0
   -3.8444    0.0000    0.0000 C   0  0  0  0  0  0  0  0  0  0  0  0
   -3.5517    1.4712    0.0000 C   0  0  0  0  0  0  0  0  0  0  0  0
   -2.7184    2.7184    0.0000 C   0  0  0  0  0  0  0  0  0  0  0  0
   -3.7790    3.7790    0.0000 O   0  0  0  0  0  0  0  0  0  0  0  0
   -1.4712    3.5517    0.0000 C   0  0  0  0  0  0  0  0  0  0  0  0
   -2.0452    4.9376    0.0000 C   0  0  0  0  0  0  0  0  0  0  0  0
    0.0000    3.8444    0.0000 C   0  0  0  0  0  0  0  0  0  0  0  0
    1.4712    3.5517    0.0000 C   0  0  0  0  0  0  0  0  0  0  0  0
    2.0452    4.9376    0.0000 C   0  0  0  0  0  0  0  0  0  0  0  0
    3.5324    5.1333    0.0000 C   0  0  0  0  0  0  0  0  0  0  0  0
    4.1064    6.5192    0.0000 O   0  0  0  0  0  0  0  0  0  0  0  0
    2.7184    2.7184    0.0000 C   0  0  0  0  0  0  0  0  0  0  0  0
    3.7790    3.7790    0.0000 O   0  0  0  0  0  0  0  0  0  0  0  0
    5.2279    3.3908    0.0000 C   0  0  0  0  0  0  0  0  0  0  0  0
    5.6162    1.9419    0.0000 O   0  0  0  0  0  0  0  0  0  0  0  0
    7.0650    1.5537    0.0000 C   0  0  0  0  0  0  0  0  0  0  0  0
    7.4533    0.1048    0.0000 C   0  0  0  0  0  0  0  0  0  0  0  0
    8.1257    2.6144    0.0000 C   0  0  0  0  0  0  0  0  0  0  0  0
    9.5746    2.2261    0.0000 O   0  0  0  0  0  0  0  0  0  0  0  0
    9.9628    0.7772    0.0000 C   0  0  0  0  0  0  0  0  0  0  0  0
   11.4117    0.3890    0.0000 C   0  0  0  0  0  0  0  0  0  0  0  0
   11.7999   -1.0599    0.0000 C   0  0  0  0  0  0  0  0  0  0  0  0
   12.6603   -2.2886    0.0000 C   0  0  0  0  0  0  0  0  0  0  0  0
   13.1594   -0.4260    0.0000 O   0  0  0  0  0  0  0  0  0  0  0  0
   10.7393   -2.1205    0.0000 C   0  0  0  0  0  0  0  0  0  0  0  0
   11.1275   -3.5694    0.0000 O   0  0  0  0  0  0  0  0  0  0  0  0
   10.0669   -4.6301    0.0000 C   0  0  0  0  0  0  0  0  0  0  0  0
    8.6180   -4.2419    0.0000 O   0  0  0  0  0  0  0  0  0  0  0  0
   10.4551   -6.0790    0.0000 C   0  0  0  0  0  0  0  0  0  0  0  0
    9.3944   -7.1396    0.0000 C   0  0  0  0  0  0  0  0  0  0  0  0
    9.2904   -1.7323    0.0000 C   0  0  0  0  0  0  0  0  0  0  0  0
    8.2297   -2.7930    0.0000 C   0  0  0  0  0  0  0  0  0  0  0  0
    8.9022   -0.2834    0.0000 O   0  0  0  0  0  0  0  0  0  0  0  0
    7.7375    4.0632    0.0000 C   0  0  0  0  0  0  0  0  0  0  0  0
    8.7981    5.1239    0.0000 N   0  0  0  0  0  0  0  0  0  0  0  0
    8.4099    6.5728    0.0000 C   0  0  0  0  0  0  0  0  0  0  0  0
   10.2470    4.7357    0.0000 C   0  0  0  0  0  0  0  0  0  0  0  0
    6.2886    4.4515    0.0000 C   0  0  0  0  0  0  0  0  0  0  0  0
    5.9004    5.9004    0.0000 O   0  0  0  0  0  0  0  0  0  0  0  0
    3.5517    1.4712    0.0000 C   0  0  0  0  0  0  0  0  0  0  0  0
    4.9376    2.0452    0.0000 O   0  0  0  0  0  0  0  0  0  0  0  0
    6.1276    1.1321    0.0000 C   0  0  0  0  0  0  0  0  0  0  0  0
  1  2  1  0
  2  3  1  0
  3  4  2  0
  3  5  1  0
  5  6  1  0
  6  7  1  0
  7  8  1  0
  8  9  2  0
  8 10  1  0
 10 11  1  0
 11 12  1  0
 11 13  1  0
 13 14  1  0
 14 15  2  0
 15 16  1  0
 16 17  2  0
 17 18  1  0
 18 19  1  0
 18 20  1  0
 20 21  1  0
 20 22  1  0
 22 23  1  0
 23 24  1  0
 24 25  1  0
 25 26  2  0
 23 27  1  0
 27 28  1  0
 28 29  1  0
 29 30  1  0
 30 31  1  0
 31 32  1  0
 31 33  1  0
 33 34  1  0
 34 35  1  0
 35 36  1  0
 36 37  1  0
 37 38  1  0
 37 39  1  0
 37 40  1  0
 40 41  1  0
 41 42  1  0
 42 43  2  0
 42 44  1  0
 44 45  1  0
 40 46  1  0
 46 47  1  0
 46 48  1  0
 33 49  1  0
 49 50  1  0
 50 51  1  0
 50 52  1  0
 49 53  1  0
 53 54  1  0
 27 55  1  0
 55 56  1  0
 56 57  1  0
 55  6  1  0
 53 29  1  0
 48 35  1  0
M  END
>  <ChEMBL_IDs>  (446) 
nan

>  <target_organism>  (446) 
nan

>  <target_molecule_pref_name>  (446) 
nan

>  <# Known Targets>  (446) 
nan

>  <Known Targets>  (446) 
nan

>  <smiles>  (446) 
CCC(=O)OC1CC(=O)OC(C)C/C=C\C=C/C(O)C(C)CC(CC=O)C(OC2OC(C)C(OC3CC(C)(O)C(OC(=O)CC)C(C)O3)C(N(C)C)C2O)C1OC

$$$$

     RDKit          2D

 57 59  0  0  0  0  0  0  0  0999 V2000
    6.0944   -3.8971    0.0000 C   0  0  0  0  0  0  0  0  0  0  0  0
    5.3444   -2.5981    0.0000 C   0  0  0  0  0  0  0  0  0  0  0  0
    6.0944   -1.2990    0.0000 C   0  0  0  0  0  0  0  0  0  0  0  0
    7.5944   -1.2990    0.0000 O   0  0  0  0  0  0  0  0  0  0  0  0
    5.3444   -0.0000    0.0000 O   0  0  0  0  0  0  0  0  0  0  0  0
    3.8444    0.0000    0.0000 C   0  0  0  0  0  0  0  0  0  0  0  0
    3.5517   -1.4712    0.0000 C   0  0  0  0  0  0  0  0  0  0  0  0
    2.7184   -2.7184    0.0000 C   0  0  0  0  0  0  0  0  0  0  0  0
    3.7790   -3.7790    0.0000 O   0  0  0  0  0  0  0  0  0  0  0  0
    1.4712   -3.5517    0.0000 O   0  0  0  0  0  0  0  0  0  0  0  0
   -0.0000   -3.8444    0.0000 C   0  0  0  0  0  0  0  0  0  0  0  0
   -0.0000   -5.3444    0.0000 C   0  0  0  0  0  0  0  0  0  0  0  0
   -1.4712   -3.5517    0.0000 C   0  0  0  0  0  0  0  0  0  0  0  0
   -2.7184   -2.7184    0.0000 C   0  0  0  0  0  0  0  0  0  0  0  0
   -3.7790   -3.7790    0.0000 O   0  0  0  0  0  0  0  0  0  0  0  0
   -3.5517   -1.4712    0.0000 C   0  0  0  0  0  0  0  0  0  0  0  0
   -3.8444    0.0000    0.0000 C   0  0  0  0  0  0  0  0  0  0  0  0
   -3.5517    1.4712    0.0000 C   0  0  0  0  0  0  0  0  0  0  0  0
   -2.7184    2.7184    0.0000 C   0  0  0  0  0  0  0  0  0  0  0  0
   -1.4712    3.5517    0.0000 C   0  0  0  0  0  0  0  0  0  0  0  0
   -2.0452    4.9376    0.0000 C   0  0  0  0  0  0  0  0  0  0  0  0
    0.0000    3.8444    0.0000 C   0  0  0  0  0  0  0  0  0  0  0  0
    1.4712    3.5517    0.0000 C   0  0  0  0  0  0  0  0  0  0  0  0
    2.0452    4.9376    0.0000 C   0  0  0  0  0  0  0  0  0  0  0  0
    3.5324    5.1333    0.0000 C   0  0  0  0  0  0  0  0  0  0  0  0
    4.1064    6.5192    0.0000 O   0  0  0  0  0  0  0  0  0  0  0  0
    2.7184    2.7184    0.0000 C   0  0  0  0  0  0  0  0  0  0  0  0
    3.7790    3.7790    0.0000 O   0  0  0  0  0  0  0  0  0  0  0  0
    5.2279    3.3908    0.0000 C   0  0  0  0  0  0  0  0  0  0  0  0
    5.6162    1.9419    0.0000 O   0  0  0  0  0  0  0  0  0  0  0  0
    7.0650    1.5537    0.0000 C   0  0  0  0  0  0  0  0  0  0  0  0
    7.4533    0.1048    0.0000 C   0  0  0  0  0  0  0  0  0  0  0  0
    8.1257    2.6144    0.0000 C   0  0  0  0  0  0  0  0  0  0  0  0
    9.5746    2.2261    0.0000 O   0  0  0  0  0  0  0  0  0  0  0  0
    9.9628    0.7772    0.0000 C   0  0  0  0  0  0  0  0  0  0  0  0
   11.4117    0.3890    0.0000 C   0  0  0  0  0  0  0  0  0  0  0  0
   11.7999   -1.0599    0.0000 C   0  0  0  0  0  0  0  0  0  0  0  0
   12.6603   -2.2886    0.0000 C   0  0  0  0  0  0  0  0  0  0  0  0
   13.1594   -0.4260    0.0000 O   0  0  0  0  0  0  0  0  0  0  0  0
   10.7393   -2.1205    0.0000 C   0  0  0  0  0  0  0  0  0  0  0  0
   11.1275   -3.5694    0.0000 O   0  0  0  0  0  0  0  0  0  0  0  0
   10.0669   -4.6301    0.0000 C   0  0  0  0  0  0  0  0  0  0  0  0
    8.6180   -4.2419    0.0000 O   0  0  0  0  0  0  0  0  0  0  0  0
   10.4551   -6.0790    0.0000 C   0  0  0  0  0  0  0  0  0  0  0  0
    9.3944   -7.1396    0.0000 C   0  0  0  0  0  0  0  0  0  0  0  0
    9.2904   -1.7323    0.0000 C   0  0  0  0  0  0  0  0  0  0  0  0
    8.2297   -2.7930    0.0000 C   0  0  0  0  0  0  0  0  0  0  0  0
    8.9022   -0.2834    0.0000 O   0  0  0  0  0  0  0  0  0  0  0  0
    7.7375    4.0632    0.0000 C   0  0  0  0  0  0  0  0  0  0  0  0
    8.7981    5.1239    0.0000 N   0  0  0  0  0  0  0  0  0  0  0  0
    8.4099    6.5728    0.0000 C   0  0  0  0  0  0  0  0  0  0  0  0
   10.2470    4.7357    0.0000 C   0  0  0  0  0  0  0  0  0  0  0  0
    6.2886    4.4515    0.0000 C   0  0  0  0  0  0  0  0  0  0  0  0
    5.9004    5.9004    0.0000 O   0  0  0  0  0  0  0  0  0  0  0  0
    3.5517    1.4712    0.0000 C   0  0  0  0  0  0  0  0  0  0  0  0
    4.9376    2.0452    0.0000 O   0  0  0  0  0  0  0  0  0  0  0  0
    6.1276    1.1321    0.0000 C   0  0  0  0  0  0  0  0  0  0  0  0
  1  2  1  0
  2  3  1  0
  3  4  2  0
  3  5  1  0
  5  6  1  0
  6  7  1  0
  7  8  1  0
  8  9  2  0
  8 10  1  0
 10 11  1  0
 11 12  1  0
 11 13  1  0
 13 14  1  0
 14 15  1  0
 14 16  2  0
 16 17  1  0
 17 18  2  0
 18 19  1  0
 19 20  1  0
 20 21  1  0
 20 22  1  0
 22 23  1  0
 23 24  1  0
 24 25  1  0
 25 26  2  0
 23 27  1  0
 27 28  1  0
 28 29  1  0
 29 30  1  0
 30 31  1  0
 31 32  1  0
 31 33  1  0
 33 34  1  0
 34 35  1  0
 35 36  1  0
 36 37  1  0
 37 38  1  0
 37 39  1  0
 37 40  1  0
 40 41  1  0
 41 42  1  0
 42 43  2  0
 42 44  1  0
 44 45  1  0
 40 46  1  0
 46 47  1  0
 46 48  1  0
 33 49  1  0
 49 50  1  0
 50 51  1  0
 50 52  1  0
 49 53  1  0
 53 54  1  0
 27 55  1  0
 55 56  1  0
 56 57  1  0
 55  6  1  0
 53 29  1  0
 48 35  1  0
M  END
>  <ChEMBL_IDs>  (447) 
nan

>  <target_organism>  (447) 
nan

>  <target_molecule_pref_name>  (447) 
nan

>  <# Known Targets>  (447) 
nan

>  <Known Targets>  (447) 
nan

>  <smiles>  (447) 
CCC(=O)OC1CC(=O)OC(C)C/C(O)=C\C=C/CC(C)CC(CC=O)C(OC2OC(C)C(OC3CC(C)(O)C(OC(=O)CC)C(C)O3)C(N(C)C)C2O)C1OC

$$$$

     RDKit          2D

 57 59  0  0  0  0  0  0  0  0999 V2000
   13.0414  -13.8383    0.0000 C   0  0  0  0  0  0  0  0  0  0  0  0
   12.8456  -12.3512    0.0000 C   0  0  0  0  0  0  0  0  0  0  0  0
   11.4598  -11.7771    0.0000 O   0  0  0  0  0  0  0  0  0  0  0  0
   11.2640  -10.2900    0.0000 C   0  0  0  0  0  0  0  0  0  0  0  0
   12.4540   -9.3768    0.0000 O   0  0  0  0  0  0  0  0  0  0  0  0
    9.8782   -9.7159    0.0000 C   0  0  0  0  0  0  0  0  0  0  0  0
    9.6824   -8.2288    0.0000 C   0  0  0  0  0  0  0  0  0  0  0  0
   10.8724   -7.3156    0.0000 C   0  0  0  0  0  0  0  0  0  0  0  0
    8.2966   -7.6548    0.0000 O   0  0  0  0  0  0  0  0  0  0  0  0
    7.1065   -8.5679    0.0000 C   0  0  0  0  0  0  0  0  0  0  0  0
    5.7207   -7.9939    0.0000 O   0  0  0  0  0  0  0  0  0  0  0  0
    5.5249   -6.5067    0.0000 C   0  0  0  0  0  0  0  0  0  0  0  0
    4.1391   -5.9327    0.0000 C   0  0  0  0  0  0  0  0  0  0  0  0
    2.9491   -6.8458    0.0000 C   0  0  0  0  0  0  0  0  0  0  0  0
    3.9433   -4.4455    0.0000 O   0  0  0  0  0  0  0  0  0  0  0  0
    5.1333   -3.5324    0.0000 C   0  0  0  0  0  0  0  0  0  0  0  0
    4.9376   -2.0452    0.0000 O   0  0  0  0  0  0  0  0  0  0  0  0
    3.5517   -1.4712    0.0000 C   0  0  0  0  0  0  0  0  0  0  0  0
    3.8444    0.0000    0.0000 C   0  0  0  0  0  0  0  0  0  0  0  0
    5.3444    0.0000    0.0000 C   0  0  0  0  0  0  0  0  0  0  0  0
    6.0944   -1.2990    0.0000 C   0  0  0  0  0  0  0  0  0  0  0  0
    7.5944   -1.2990    0.0000 O   0  0  0  0  0  0  0  0  0  0  0  0
    3.5517    1.4712    0.0000 C   0  0  0  0  0  0  0  0  0  0  0  0
    2.7184    2.7184    0.0000 C   0  0  0  0  0  0  0  0  0  0  0  0
    3.7790    3.7790    0.0000 C   0  0  0  0  0  0  0  0  0  0  0  0
    1.4712    3.5517    0.0000 C   0  0  0  0  0  0  0  0  0  0  0  0
    2.0452    4.9376    0.0000 O   0  0  0  0  0  0  0  0  0  0  0  0
    0.0000    3.8444    0.0000 C   0  0  0  0  0  0  0  0  0  0  0  0
   -1.4712    3.5517    0.0000 C   0  0  0  0  0  0  0  0  0  0  0  0
   -2.7184    2.7184    0.0000 C   0  0  0  0  0  0  0  0  0  0  0  0
   -3.5517    1.4712    0.0000 C   0  0  0  0  0  0  0  0  0  0  0  0
   -3.8444    0.0000    0.0000 C   0  0  0  0  0  0  0  0  0  0  0  0
   -3.5517   -1.4712    0.0000 C   0  0  0  0  0  0  0  0  0  0  0  0
   -4.9376   -2.0452    0.0000 C   0  0  0  0  0  0  0  0  0  0  0  0
   -2.7184   -2.7184    0.0000 O   0  0  0  0  0  0  0  0  0  0  0  0
   -1.4712   -3.5517    0.0000 C   0  0  0  0  0  0  0  0  0  0  0  0
   -2.0452   -4.9376    0.0000 O   0  0  0  0  0  0  0  0  0  0  0  0
   -0.0000   -3.8444    0.0000 C   0  0  0  0  0  0  0  0  0  0  0  0
    1.4712   -3.5517    0.0000 C   0  0  0  0  0  0  0  0  0  0  0  0
    2.0452   -4.9376    0.0000 O   0  0  0  0  0  0  0  0  0  0  0  0
    1.1321   -6.1276    0.0000 C   0  0  0  0  0  0  0  0  0  0  0  0
    1.7061   -7.5134    0.0000 O   0  0  0  0  0  0  0  0  0  0  0  0
   -0.3551   -5.9318    0.0000 C   0  0  0  0  0  0  0  0  0  0  0  0
   -1.2682   -7.1218    0.0000 C   0  0  0  0  0  0  0  0  0  0  0  0
    2.7184   -2.7184    0.0000 C   0  0  0  0  0  0  0  0  0  0  0  0
    3.7790   -3.7790    0.0000 O   0  0  0  0  0  0  0  0  0  0  0  0
    3.3908   -5.2279    0.0000 C   0  0  0  0  0  0  0  0  0  0  0  0
    6.5192   -4.1064    0.0000 C   0  0  0  0  0  0  0  0  0  0  0  0
    7.7092   -3.1933    0.0000 O   0  0  0  0  0  0  0  0  0  0  0  0
    6.7150   -5.5936    0.0000 C   0  0  0  0  0  0  0  0  0  0  0  0
    8.1008   -6.1676    0.0000 N   0  0  0  0  0  0  0  0  0  0  0  0
    8.6506   -7.5632    0.0000 C   0  0  0  0  0  0  0  0  0  0  0  0
    9.2908   -5.2544    0.0000 C   0  0  0  0  0  0  0  0  0  0  0  0
    7.3023  -10.0551    0.0000 C   0  0  0  0  0  0  0  0  0  0  0  0
    8.6881  -10.6291    0.0000 C   0  0  0  0  0  0  0  0  0  0  0  0
    7.8822  -11.8942    0.0000 C   0  0  0  0  0  0  0  0  0  0  0  0
    9.7941  -11.6425    0.0000 O   0  0  0  0  0  0  0  0  0  0  0  0
  1  2  1  0
  2  3  1  0
  3  4  1  0
  4  5  2  0
  4  6  1  0
  6  7  1  0
  7  8  1  0
  7  9  1  0
  9 10  1  0
 10 11  1  0
 11 12  1  0
 12 13  1  0
 13 14  1  0
 13 15  1  0
 15 16  1  0
 16 17  1  0
 17 18  1  0
 18 19  1  0
 19 20  1  0
 20 21  1  0
 21 22  2  0
 19 23  1  0
 23 24  1  0
 24 25  1  0
 24 26  1  0
 26 27  1  0
 26 28  1  0
 28 29  2  0
 29 30  1  0
 30 31  2  0
 31 32  1  0
 32 33  1  0
 33 34  1  0
 33 35  1  0
 35 36  1  0
 36 37  2  0
 36 38  1  0
 38 39  1  0
 39 40  1  0
 40 41  1  0
 41 42  2  0
 41 43  1  0
 43 44  1  0
 39 45  1  0
 45 46  1  0
 46 47  1  0
 16 48  1  0
 48 49  1  0
 48 50  1  0
 50 51  1  0
 51 52  1  0
 51 53  1  0
 10 54  1  0
 54 55  1  0
 55 56  1  0
 55 57  1  0
 55  6  1  0
 50 12  1  0
 45 18  1  0
M  END
>  <ChEMBL_IDs>  (448) 
nan

>  <target_organism>  (448) 
nan

>  <target_molecule_pref_name>  (448) 
nan

>  <# Known Targets>  (448) 
nan

>  <Known Targets>  (448) 
nan

>  <smiles>  (448) 
CCOC(=O)C1C(C)OC(OC2C(C)OC(OC3C(CC=O)CC(C)C(O)/C=C/C=C/CC(C)OC(=O)CC(OC(=O)CC)C3OC)C(O)C2N(C)C)CC1(C)O

$$$$

     RDKit          2D

 57 59  0  0  0  0  0  0  0  0999 V2000
    6.0944   -1.2990    0.0000 C   0  0  0  0  0  0  0  0  0  0  0  0
    5.3444    0.0000    0.0000 C   0  0  0  0  0  0  0  0  0  0  0  0
    3.8444    0.0000    0.0000 C   0  0  0  0  0  0  0  0  0  0  0  0
    3.5517   -1.4712    0.0000 O   0  0  0  0  0  0  0  0  0  0  0  0
    2.7184   -2.7184    0.0000 C   0  0  0  0  0  0  0  0  0  0  0  0
    3.7790   -3.7790    0.0000 O   0  0  0  0  0  0  0  0  0  0  0  0
    1.4712   -3.5517    0.0000 C   0  0  0  0  0  0  0  0  0  0  0  0
   -0.0000   -3.8444    0.0000 C   0  0  0  0  0  0  0  0  0  0  0  0
   -0.0000   -5.3444    0.0000 O   0  0  0  0  0  0  0  0  0  0  0  0
   -1.4712   -3.5517    0.0000 C   0  0  0  0  0  0  0  0  0  0  0  0
   -1.6507   -4.7534    0.0000 C   0  0  0  0  0  0  0  0  0  0  0  0
   -2.7184   -2.7184    0.0000 C   0  0  0  0  0  0  0  0  0  0  0  0
   -3.7790   -3.7790    0.0000 O   0  0  0  0  0  0  0  0  0  0  0  0
   -3.3908   -5.2279    0.0000 C   0  0  0  0  0  0  0  0  0  0  0  0
   -1.9419   -5.6162    0.0000 O   0  0  0  0  0  0  0  0  0  0  0  0
   -1.5537   -7.0650    0.0000 C   0  0  0  0  0  0  0  0  0  0  0  0
   -0.1048   -7.4533    0.0000 C   0  0  0  0  0  0  0  0  0  0  0  0
   -2.6144   -8.1257    0.0000 C   0  0  0  0  0  0  0  0  0  0  0  0
   -2.2261   -9.5746    0.0000 O   0  0  0  0  0  0  0  0  0  0  0  0
   -4.0632   -7.7375    0.0000 C   0  0  0  0  0  0  0  0  0  0  0  0
   -5.1239   -8.7981    0.0000 N   0  0  0  0  0  0  0  0  0  0  0  0
   -6.5728   -8.4099    0.0000 C   0  0  0  0  0  0  0  0  0  0  0  0
   -4.7357  -10.2470    0.0000 C   0  0  0  0  0  0  0  0  0  0  0  0
   -4.4515   -6.2886    0.0000 C   0  0  0  0  0  0  0  0  0  0  0  0
   -5.9004   -5.9004    0.0000 O   0  0  0  0  0  0  0  0  0  0  0  0
   -3.5517   -1.4712    0.0000 C   0  0  0  0  0  0  0  0  0  0  0  0
   -4.9376   -2.0452    0.0000 C   0  0  0  0  0  0  0  0  0  0  0  0
   -6.1276   -1.1321    0.0000 C   0  0  0  0  0  0  0  0  0  0  0  0
   -7.5134   -1.7061    0.0000 C   0  0  0  0  0  0  0  0  0  0  0  0
   -8.7034   -0.7929    0.0000 C   0  0  0  0  0  0  0  0  0  0  0  0
   -8.5076    0.6942    0.0000 O   0  0  0  0  0  0  0  0  0  0  0  0
  -10.0893   -1.3670    0.0000 O   0  0  0  0  0  0  0  0  0  0  0  0
   -3.8444    0.0000    0.0000 C   0  0  0  0  0  0  0  0  0  0  0  0
   -3.5517    1.4712    0.0000 C   0  0  0  0  0  0  0  0  0  0  0  0
   -4.9376    2.0452    0.0000 C   0  0  0  0  0  0  0  0  0  0  0  0
   -2.7184    2.7184    0.0000 C   0  0  0  0  0  0  0  0  0  0  0  0
   -3.7790    3.7790    0.0000 O   0  0  0  0  0  0  0  0  0  0  0  0
   -1.4712    3.5517    0.0000 C   0  0  0  0  0  0  0  0  0  0  0  0
    0.0000    3.8444    0.0000 C   0  0  0  0  0  0  0  0  0  0  0  0
    1.4712    3.5517    0.0000 C   0  0  0  0  0  0  0  0  0  0  0  0
    2.0452    4.9376    0.0000 C   0  0  0  0  0  0  0  0  0  0  0  0
    2.7184    2.7184    0.0000 C   0  0  0  0  0  0  0  0  0  0  0  0
    3.5517    1.4712    0.0000 C   0  0  0  0  0  0  0  0  0  0  0  0
    4.9376    2.0452    0.0000 C   0  0  0  0  0  0  0  0  0  0  0  0
    6.1276    1.1321    0.0000 O   0  0  0  0  0  0  0  0  0  0  0  0
    7.5134    1.7061    0.0000 C   0  0  0  0  0  0  0  0  0  0  0  0
    8.7034    0.7929    0.0000 O   0  0  0  0  0  0  0  0  0  0  0  0
   10.0893    1.3670    0.0000 C   0  0  0  0  0  0  0  0  0  0  0  0
   11.2793    0.4538    0.0000 C   0  0  0  0  0  0  0  0  0  0  0  0
   10.2850    2.8541    0.0000 C   0  0  0  0  0  0  0  0  0  0  0  0
   11.6709    3.4282    0.0000 O   0  0  0  0  0  0  0  0  0  0  0  0
    9.0950    3.7673    0.0000 C   0  0  0  0  0  0  0  0  0  0  0  0
    9.2908    5.2544    0.0000 O   0  0  0  0  0  0  0  0  0  0  0  0
    8.1008    6.1676    0.0000 C   0  0  0  0  0  0  0  0  0  0  0  0
    7.7092    3.1933    0.0000 C   0  0  0  0  0  0  0  0  0  0  0  0
    6.5192    4.1064    0.0000 O   0  0  0  0  0  0  0  0  0  0  0  0
    6.7150    5.5936    0.0000 C   0  0  0  0  0  0  0  0  0  0  0  0
  1  2  1  0
  3  2  1  1
  3  4  1  0
  4  5  1  0
  5  6  2  0
  5  7  1  0
  7  8  1  0
  8  9  1  1
  8 10  1  0
 10 11  1  6
 10 12  1  0
 12 13  1  1
 13 14  1  0
 14 15  1  0
 15 16  1  0
 16 17  1  0
 16 18  1  0
 18 19  1  0
 18 20  1  0
 20 21  1  0
 21 22  1  0
 21 23  1  0
 20 24  1  0
 24 25  1  0
 12 26  1  0
 26 27  1  1
 27 28  1  0
 28 29  2  0
 29 30  1  0
 30 31  2  0
 30 32  1  0
 26 33  1  0
 33 34  1  0
 34 35  1  1
 34 36  1  0
 36 37  2  0
 36 38  1  0
 38 39  2  0
 39 40  1  0
 40 41  1  0
 40 42  2  0
 42 43  1  0
 43 44  1  6
 44 45  1  0
 45 46  1  0
 46 47  1  0
 47 48  1  0
 48 49  1  0
 48 50  1  0
 50 51  1  0
 50 52  1  0
 52 53  1  0
 53 54  1  0
 52 55  1  0
 55 56  1  0
 56 57  1  0
 43  3  1  0
 55 46  1  0
 24 14  1  0
M  END
>  <ChEMBL_IDs>  (449) 
CHEMBL342919

>  <target_organism>  (449) 
Hepatitis C virus,None

>  <target_molecule_pref_name>  (449) 
nan

>  <# Known Targets>  (449) 
nan

>  <Known Targets>  (449) 
nan

>  <smiles>  (449) 
CC[C@H]1OC(=O)C[C@@H](O)[C@H](C)[C@@H](OC2OC(C)C(O)C(N(C)C)C2O)[C@@H](C/C=C/C(=O)O)C[C@@H](C)C(=O)/C=C/C(C)=C/[C@@H]1COC1OC(C)C(O)C(OC)C1OC

$$$$

     RDKit          2D

 57 59  0  0  0  0  0  0  0  0999 V2000
    6.0944   -1.2990    0.0000 C   0  0  0  0  0  0  0  0  0  0  0  0
    5.3444    0.0000    0.0000 C   0  0  0  0  0  0  0  0  0  0  0  0
    3.8444    0.0000    0.0000 C   0  0  0  0  0  0  0  0  0  0  0  0
    3.5517   -1.4712    0.0000 O   0  0  0  0  0  0  0  0  0  0  0  0
    2.7184   -2.7184    0.0000 C   0  0  0  0  0  0  0  0  0  0  0  0
    3.7790   -3.7790    0.0000 O   0  0  0  0  0  0  0  0  0  0  0  0
    1.4712   -3.5517    0.0000 C   0  0  0  0  0  0  0  0  0  0  0  0
   -0.0000   -3.8444    0.0000 C   0  0  0  0  0  0  0  0  0  0  0  0
   -0.0000   -5.3444    0.0000 O   0  0  0  0  0  0  0  0  0  0  0  0
    1.2990   -6.0944    0.0000 C   0  0  0  0  0  0  0  0  0  0  0  0
    1.2990   -7.5944    0.0000 C   0  0  0  0  0  0  0  0  0  0  0  0
    2.5981   -5.3444    0.0000 O   0  0  0  0  0  0  0  0  0  0  0  0
   -1.4712   -3.5517    0.0000 C   0  0  0  0  0  0  0  0  0  0  0  0
   -1.6507   -4.7534    0.0000 C   0  0  0  0  0  0  0  0  0  0  0  0
   -2.7184   -2.7184    0.0000 C   0  0  0  0  0  0  0  0  0  0  0  0
   -3.7790   -3.7790    0.0000 O   0  0  0  0  0  0  0  0  0  0  0  0
   -3.3908   -5.2279    0.0000 C   0  0  0  0  0  0  0  0  0  0  0  0
   -1.9419   -5.6162    0.0000 O   0  0  0  0  0  0  0  0  0  0  0  0
   -1.5537   -7.0650    0.0000 C   0  0  0  0  0  0  0  0  0  0  0  0
   -0.1048   -7.4533    0.0000 C   0  0  0  0  0  0  0  0  0  0  0  0
   -2.6144   -8.1257    0.0000 C   0  0  0  0  0  0  0  0  0  0  0  0
   -2.2261   -9.5746    0.0000 O   0  0  0  0  0  0  0  0  0  0  0  0
   -4.0632   -7.7375    0.0000 C   0  0  0  0  0  0  0  0  0  0  0  0
   -5.1239   -8.7981    0.0000 N   0  0  0  0  0  0  0  0  0  0  0  0
   -6.5728   -8.4099    0.0000 C   0  0  0  0  0  0  0  0  0  0  0  0
   -4.7357  -10.2470    0.0000 C   0  0  0  0  0  0  0  0  0  0  0  0
   -4.4515   -6.2886    0.0000 C   0  0  0  0  0  0  0  0  0  0  0  0
   -5.9004   -5.9004    0.0000 O   0  0  0  0  0  0  0  0  0  0  0  0
   -3.5517   -1.4712    0.0000 C   0  0  0  0  0  0  0  0  0  0  0  0
   -4.9376   -2.0452    0.0000 C   0  0  0  0  0  0  0  0  0  0  0  0
   -6.1276   -1.1321    0.0000 C   0  0  0  0  0  0  0  0  0  0  0  0
   -7.5134   -1.7061    0.0000 O   0  0  0  0  0  0  0  0  0  0  0  0
   -3.8444    0.0000    0.0000 C   0  0  0  0  0  0  0  0  0  0  0  0
   -3.5517    1.4712    0.0000 C   0  0  0  0  0  0  0  0  0  0  0  0
   -4.9376    2.0452    0.0000 C   0  0  0  0  0  0  0  0  0  0  0  0
   -2.7184    2.7184    0.0000 C   0  0  0  0  0  0  0  0  0  0  0  0
   -3.7790    3.7790    0.0000 O   0  0  0  0  0  0  0  0  0  0  0  0
   -1.4712    3.5517    0.0000 C   0  0  0  0  0  0  0  0  0  0  0  0
    0.0000    3.8444    0.0000 C   0  0  0  0  0  0  0  0  0  0  0  0
    1.4712    3.5517    0.0000 C   0  0  0  0  0  0  0  0  0  0  0  0
    2.0452    4.9376    0.0000 C   0  0  0  0  0  0  0  0  0  0  0  0
    2.7184    2.7184    0.0000 C   0  0  0  0  0  0  0  0  0  0  0  0
    3.5517    1.4712    0.0000 C   0  0  0  0  0  0  0  0  0  0  0  0
    4.9376    2.0452    0.0000 C   0  0  0  0  0  0  0  0  0  0  0  0
    6.1276    1.1321    0.0000 O   0  0  0  0  0  0  0  0  0  0  0  0
    7.5134    1.7061    0.0000 C   0  0  0  0  0  0  0  0  0  0  0  0
    8.7034    0.7929    0.0000 O   0  0  0  0  0  0  0  0  0  0  0  0
   10.0893    1.3670    0.0000 C   0  0  0  0  0  0  0  0  0  0  0  0
   11.2793    0.4538    0.0000 C   0  0  0  0  0  0  0  0  0  0  0  0
   10.2850    2.8541    0.0000 C   0  0  0  0  0  0  0  0  0  0  0  0
   11.6709    3.4282    0.0000 O   0  0  0  0  0  0  0  0  0  0  0  0
    9.0950    3.7673    0.0000 C   0  0  0  0  0  0  0  0  0  0  0  0
    9.2908    5.2544    0.0000 O   0  0  0  0  0  0  0  0  0  0  0  0
    8.1008    6.1676    0.0000 C   0  0  0  0  0  0  0  0  0  0  0  0
    7.7092    3.1933    0.0000 C   0  0  0  0  0  0  0  0  0  0  0  0
    6.5192    4.1064    0.0000 O   0  0  0  0  0  0  0  0  0  0  0  0
    6.7150    5.5936    0.0000 C   0  0  0  0  0  0  0  0  0  0  0  0
  1  2  1  0
  3  2  1  1
  3  4  1  0
  4  5  1  0
  5  6  2  0
  5  7  1  0
  7  8  1  0
  8  9  1  1
  9 10  1  0
 10 11  1  0
 10 12  2  0
  8 13  1  0
 13 14  1  6
 13 15  1  0
 15 16  1  1
 16 17  1  0
 17 18  1  0
 18 19  1  0
 19 20  1  0
 19 21  1  0
 21 22  1  0
 21 23  1  0
 23 24  1  0
 24 25  1  0
 24 26  1  0
 23 27  1  0
 27 28  1  0
 15 29  1  0
 29 30  1  1
 30 31  1  0
 31 32  2  0
 29 33  1  0
 33 34  1  0
 34 35  1  1
 34 36  1  0
 36 37  2  0
 36 38  1  0
 38 39  2  0
 39 40  1  0
 40 41  1  0
 40 42  2  0
 42 43  1  0
 43 44  1  6
 44 45  1  0
 45 46  1  0
 46 47  1  0
 47 48  1  0
 48 49  1  0
 48 50  1  0
 50 51  1  0
 50 52  1  0
 52 53  1  0
 53 54  1  0
 52 55  1  0
 55 56  1  0
 56 57  1  0
 43  3  1  0
 55 46  1  0
 27 17  1  0
M  END
>  <ChEMBL_IDs>  (450) 
CHEMBL137694

>  <target_organism>  (450) 
nan

>  <target_molecule_pref_name>  (450) 
nan

>  <# Known Targets>  (450) 
nan

>  <Known Targets>  (450) 
nan

>  <smiles>  (450) 
CC[C@H]1OC(=O)C[C@@H](OC(C)=O)[C@H](C)[C@@H](OC2OC(C)C(O)C(N(C)C)C2O)[C@@H](CC=O)C[C@@H](C)C(=O)/C=C/C(C)=C/[C@@H]1COC1OC(C)C(O)C(OC)C1OC

$$$$

     RDKit          2D

 54 56  0  0  0  0  0  0  0  0999 V2000
   -5.2279    3.3908    0.0000 C   0  0  0  0  0  0  0  0  0  0  0  0
   -3.7790    3.7790    0.0000 O   0  0  0  0  0  0  0  0  0  0  0  0
   -2.7184    2.7184    0.0000 C   0  0  0  0  0  0  0  0  0  0  0  0
   -3.5517    1.4712    0.0000 C   0  0  0  0  0  0  0  0  0  0  0  0
   -3.8444   -0.0000    0.0000 C   0  0  0  0  0  0  0  0  0  0  0  0
   -5.3444   -0.0000    0.0000 C   0  0  0  0  0  0  0  0  0  0  0  0
   -3.5517   -1.4712    0.0000 C   0  0  0  0  0  0  0  0  0  0  0  0
   -2.7184   -2.7184    0.0000 C   0  0  0  0  0  0  0  0  0  0  0  0
   -3.7790   -3.7790    0.0000 C   0  0  0  0  0  0  0  0  0  0  0  0
   -1.4712   -3.5517    0.0000 C   0  0  0  0  0  0  0  0  0  0  0  0
   -2.0452   -4.9376    0.0000 O   0  0  0  0  0  0  0  0  0  0  0  0
    0.0000   -3.8444    0.0000 C   0  0  0  0  0  0  0  0  0  0  0  0
    0.0000   -5.3444    0.0000 C   0  0  0  0  0  0  0  0  0  0  0  0
    1.4712   -3.5517    0.0000 C   0  0  0  0  0  0  0  0  0  0  0  0
    2.7184   -2.7184    0.0000 C   0  0  0  0  0  0  0  0  0  0  0  0
    3.7790   -3.7790    0.0000 C   0  0  0  0  0  0  0  0  0  0  0  0
    3.5517   -1.4712    0.0000 C   0  0  0  0  0  0  0  0  0  0  0  0
    3.8444    0.0000    0.0000 C   0  0  0  0  0  0  0  0  0  0  0  0
    3.5517    1.4712    0.0000 C   0  0  0  0  0  0  0  0  0  0  0  0
    2.7184    2.7184    0.0000 C   0  0  0  0  0  0  0  0  0  0  0  0
    3.7790    3.7790    0.0000 O   0  0  0  0  0  0  0  0  0  0  0  0
    5.2279    3.3908    0.0000 C   0  0  0  0  0  0  0  0  0  0  0  0
    1.4712    3.5517    0.0000 C   0  0  0  0  0  0  0  0  0  0  0  0
    2.0452    4.9376    0.0000 C   0  0  0  0  0  0  0  0  0  0  0  0
    3.5324    5.1333    0.0000 C   0  0  0  0  0  0  0  0  0  0  0  0
    1.1321    6.1276    0.0000 C   0  0  0  0  0  0  0  0  0  0  0  0
   -0.3551    5.9318    0.0000 O   0  0  0  0  0  0  0  0  0  0  0  0
    1.7061    7.5134    0.0000 C   0  0  0  0  0  0  0  0  0  0  0  0
    0.7929    8.7034    0.0000 C   0  0  0  0  0  0  0  0  0  0  0  0
    3.1933    7.7092    0.0000 C   0  0  0  0  0  0  0  0  0  0  0  0
    3.1278    6.2106    0.0000 O   0  0  0  0  0  0  0  0  0  0  0  0
    2.7422    9.1398    0.0000 C   0  0  0  0  0  0  0  0  0  0  0  0
    3.7556   10.2457    0.0000 C   0  0  0  0  0  0  0  0  0  0  0  0
    3.3045   11.6763    0.0000 O   0  0  0  0  0  0  0  0  0  0  0  0
    4.3179   12.7822    0.0000 C   0  0  0  0  0  0  0  0  0  0  0  0
    5.7824   12.4575    0.0000 O   0  0  0  0  0  0  0  0  0  0  0  0
    6.7957   13.5634    0.0000 C   0  0  0  0  0  0  0  0  0  0  0  0
    8.2602   13.2388    0.0000 C   0  0  0  0  0  0  0  0  0  0  0  0
    6.3447   14.9940    0.0000 C   0  0  0  0  0  0  0  0  0  0  0  0
    7.3581   16.0999    0.0000 O   0  0  0  0  0  0  0  0  0  0  0  0
    4.8802   15.3187    0.0000 C   0  0  0  0  0  0  0  0  0  0  0  0
    4.4292   16.7492    0.0000 O   0  0  0  0  0  0  0  0  0  0  0  0
    3.8668   14.2128    0.0000 C   0  0  0  0  0  0  0  0  0  0  0  0
    2.4024   14.5374    0.0000 O   0  0  0  0  0  0  0  0  0  0  0  0
    5.2200    9.9210    0.0000 C   0  0  0  0  0  0  0  0  0  0  0  0
    6.2334   11.0269    0.0000 C   0  0  0  0  0  0  0  0  0  0  0  0
    5.6711    8.4905    0.0000 C   0  0  0  0  0  0  0  0  0  0  0  0
    7.1355    8.1658    0.0000 C   0  0  0  0  0  0  0  0  0  0  0  0
    7.5866    6.7352    0.0000 C   0  0  0  0  0  0  0  0  0  0  0  0
    8.1489    9.2717    0.0000 C   0  0  0  0  0  0  0  0  0  0  0  0
    4.6577    7.3845    0.0000 O   0  0  0  0  0  0  0  0  0  0  0  0
    0.0000    3.8444    0.0000 O   0  0  0  0  0  0  0  0  0  0  0  0
   -1.4712    3.5517    0.0000 C   0  0  0  0  0  0  0  0  0  0  0  0
   -2.0452    4.9376    0.0000 O   0  0  0  0  0  0  0  0  0  0  0  0
  1  2  1  0
  2  3  1  0
  3  4  2  0
  4  5  1  0
  5  6  1  0
  5  7  2  0
  7  8  1  0
  8  9  1  0
  8 10  1  0
 10 11  1  0
 10 12  1  0
 12 13  1  0
 12 14  1  0
 14 15  1  0
 15 16  1  0
 15 17  2  0
 17 18  1  0
 18 19  2  0
 19 20  1  0
 20 21  1  0
 21 22  1  0
 20 23  1  0
 23 24  1  0
 24 25  1  0
 24 26  1  0
 26 27  1  0
 26 28  1  0
 28 29  1  0
 28 30  1  0
 30 31  1  0
 30 32  1  0
 32 33  1  0
 33 34  1  0
 34 35  1  0
 35 36  1  0
 36 37  1  0
 37 38  1  0
 37 39  1  0
 39 40  1  0
 39 41  1  0
 41 42  1  0
 41 43  1  0
 43 44  1  0
 33 45  1  0
 45 46  1  0
 45 47  1  0
 47 48  1  0
 48 49  1  0
 48 50  1  0
 47 51  1  0
 23 52  1  0
 52 53  1  0
 53 54  2  0
 53  3  1  0
 51 30  1  0
 43 35  1  0
M  END
>  <ChEMBL_IDs>  (451) 
nan

>  <target_organism>  (451) 
nan

>  <target_molecule_pref_name>  (451) 
nan

>  <# Known Targets>  (451) 
nan

>  <Known Targets>  (451) 
nan

>  <smiles>  (451) 
CO/C1=C/C(C)=C\C(C)C(O)C(C)C/C(C)=C\C=C/C(OC)C(C(C)C(O)C(C)C2(O)CC(OC3OC(C)C(O)C(O)C3O)C(C)C(C(C)C)O2)OC1=O

$$$$

     RDKit          2D

 57 59  0  0  0  0  0  0  0  0999 V2000
    6.0944   -1.2990    0.0000 C   0  0  0  0  0  0  0  0  0  0  0  0
    5.3444    0.0000    0.0000 C   0  0  0  0  0  0  0  0  0  0  0  0
    3.8444    0.0000    0.0000 C   0  0  0  0  0  0  0  0  0  0  0  0
    3.5517   -1.4712    0.0000 O   0  0  0  0  0  0  0  0  0  0  0  0
    2.7184   -2.7184    0.0000 C   0  0  0  0  0  0  0  0  0  0  0  0
    3.7790   -3.7790    0.0000 O   0  0  0  0  0  0  0  0  0  0  0  0
    1.4712   -3.5517    0.0000 C   0  0  0  0  0  0  0  0  0  0  0  0
   -0.0000   -3.8444    0.0000 C   0  0  0  0  0  0  0  0  0  0  0  0
   -0.0000   -5.3444    0.0000 O   0  0  0  0  0  0  0  0  0  0  0  0
   -1.4712   -3.5517    0.0000 C   0  0  0  0  0  0  0  0  0  0  0  0
   -1.6507   -4.7534    0.0000 C   0  0  0  0  0  0  0  0  0  0  0  0
   -2.7184   -2.7184    0.0000 C   0  0  0  0  0  0  0  0  0  0  0  0
   -3.7790   -3.7790    0.0000 O   0  0  0  0  0  0  0  0  0  0  0  0
   -3.3908   -5.2279    0.0000 C   0  0  0  0  0  0  0  0  0  0  0  0
   -1.9419   -5.6162    0.0000 O   0  0  0  0  0  0  0  0  0  0  0  0
   -1.5537   -7.0650    0.0000 C   0  0  0  0  0  0  0  0  0  0  0  0
   -0.1048   -7.4533    0.0000 C   0  0  0  0  0  0  0  0  0  0  0  0
   -2.6144   -8.1257    0.0000 C   0  0  0  0  0  0  0  0  0  0  0  0
   -2.2261   -9.5746    0.0000 O   0  0  0  0  0  0  0  0  0  0  0  0
   -4.0632   -7.7375    0.0000 C   0  0  0  0  0  0  0  0  0  0  0  0
   -5.1239   -8.7981    0.0000 N   0  0  0  0  0  0  0  0  0  0  0  0
   -6.5728   -8.4099    0.0000 C   0  0  0  0  0  0  0  0  0  0  0  0
   -4.7357  -10.2470    0.0000 C   0  0  0  0  0  0  0  0  0  0  0  0
   -4.4515   -6.2886    0.0000 C   0  0  0  0  0  0  0  0  0  0  0  0
   -5.9004   -5.9004    0.0000 O   0  0  0  0  0  0  0  0  0  0  0  0
   -3.5517   -1.4712    0.0000 C   0  0  0  0  0  0  0  0  0  0  0  0
   -4.9376   -2.0452    0.0000 C   0  0  0  0  0  0  0  0  0  0  0  0
   -6.1276   -1.1321    0.0000 C   0  0  0  0  0  0  0  0  0  0  0  0
   -7.5134   -1.7061    0.0000 O   0  0  0  0  0  0  0  0  0  0  0  0
   -8.7034   -0.7929    0.0000 C   0  0  0  0  0  0  0  0  0  0  0  0
  -10.0893   -1.3670    0.0000 C   0  0  0  0  0  0  0  0  0  0  0  0
   -8.5076    0.6942    0.0000 O   0  0  0  0  0  0  0  0  0  0  0  0
   -3.8444    0.0000    0.0000 C   0  0  0  0  0  0  0  0  0  0  0  0
   -3.5517    1.4712    0.0000 C   0  0  0  0  0  0  0  0  0  0  0  0
   -4.9376    2.0452    0.0000 C   0  0  0  0  0  0  0  0  0  0  0  0
   -2.7184    2.7184    0.0000 C   0  0  0  0  0  0  0  0  0  0  0  0
   -3.7790    3.7790    0.0000 O   0  0  0  0  0  0  0  0  0  0  0  0
   -1.4712    3.5517    0.0000 C   0  0  0  0  0  0  0  0  0  0  0  0
    0.0000    3.8444    0.0000 C   0  0  0  0  0  0  0  0  0  0  0  0
    1.4712    3.5517    0.0000 C   0  0  0  0  0  0  0  0  0  0  0  0
    2.0452    4.9376    0.0000 C   0  0  0  0  0  0  0  0  0  0  0  0
    2.7184    2.7184    0.0000 C   0  0  0  0  0  0  0  0  0  0  0  0
    3.5517    1.4712    0.0000 C   0  0  0  0  0  0  0  0  0  0  0  0
    4.9376    2.0452    0.0000 C   0  0  0  0  0  0  0  0  0  0  0  0
    6.1276    1.1321    0.0000 O   0  0  0  0  0  0  0  0  0  0  0  0
    7.5134    1.7061    0.0000 C   0  0  0  0  0  0  0  0  0  0  0  0
    8.7034    0.7929    0.0000 O   0  0  0  0  0  0  0  0  0  0  0  0
   10.0893    1.3670    0.0000 C   0  0  0  0  0  0  0  0  0  0  0  0
   11.2793    0.4538    0.0000 C   0  0  0  0  0  0  0  0  0  0  0  0
   10.2850    2.8541    0.0000 C   0  0  0  0  0  0  0  0  0  0  0  0
   11.6709    3.4282    0.0000 O   0  0  0  0  0  0  0  0  0  0  0  0
    9.0950    3.7673    0.0000 C   0  0  0  0  0  0  0  0  0  0  0  0
    9.2908    5.2544    0.0000 O   0  0  0  0  0  0  0  0  0  0  0  0
    8.1008    6.1676    0.0000 C   0  0  0  0  0  0  0  0  0  0  0  0
    7.7092    3.1933    0.0000 C   0  0  0  0  0  0  0  0  0  0  0  0
    6.5192    4.1064    0.0000 O   0  0  0  0  0  0  0  0  0  0  0  0
    6.7150    5.5936    0.0000 C   0  0  0  0  0  0  0  0  0  0  0  0
  1  2  1  0
  3  2  1  1
  3  4  1  0
  4  5  1  0
  5  6  2  0
  5  7  1  0
  7  8  1  0
  8  9  1  1
  8 10  1  0
 10 11  1  6
 10 12  1  0
 12 13  1  1
 14 13  1  6
 14 15  1  0
 15 16  1  0
 16 17  1  6
 16 18  1  0
 18 19  1  1
 18 20  1  0
 20 21  1  6
 21 22  1  0
 21 23  1  0
 20 24  1  0
 24 25  1  1
 12 26  1  0
 26 27  1  1
 27 28  1  0
 28 29  1  0
 29 30  1  0
 30 31  1  0
 30 32  2  0
 26 33  1  0
 33 34  1  0
 34 35  1  1
 34 36  1  0
 36 37  2  0
 36 38  1  0
 38 39  2  0
 39 40  1  0
 40 41  1  0
 40 42  2  0
 42 43  1  0
 43 44  1  6
 44 45  1  0
 46 45  1  1
 46 47  1  0
 47 48  1  0
 48 49  1  1
 48 50  1  0
 50 51  1  6
 50 52  1  0
 52 53  1  6
 53 54  1  0
 52 55  1  0
 55 56  1  6
 56 57  1  0
 43  3  1  0
 55 46  1  0
 24 14  1  0
M  END
>  <ChEMBL_IDs>  (452) 
CHEMBL43578

>  <target_organism>  (452) 
Rattus norvegicus

>  <target_molecule_pref_name>  (452) 
nan

>  <# Known Targets>  (452) 
nan

>  <Known Targets>  (452) 
nan

>  <smiles>  (452) 
CC[C@H]1OC(=O)C[C@@H](O)[C@H](C)[C@@H](O[C@@H]2O[C@H](C)[C@@H](O)[C@H](N(C)C)[C@H]2O)[C@@H](CCOC(C)=O)C[C@@H](C)C(=O)/C=C/C(C)=C/[C@@H]1CO[C@@H]1O[C@H](C)[C@@H](O)[C@@H](OC)[C@H]1OC

$$$$

     RDKit          2D

 55 57  0  0  0  0  0  0  0  0999 V2000
    8.3732    9.6786    0.0000 C   0  0  0  0  0  0  0  0  0  0  0  0
    7.2941    8.6367    0.0000 C   0  0  0  0  0  0  0  0  0  0  0  0
    6.2151    7.5947    0.0000 C   0  0  0  0  0  0  0  0  0  0  0  0
    5.1361    6.5527    0.0000 C   0  0  0  0  0  0  0  0  0  0  0  0
    4.2973    7.7962    0.0000 O   0  0  0  0  0  0  0  0  0  0  0  0
    3.7658    5.9426    0.0000 C   0  0  0  0  0  0  0  0  0  0  0  0
    2.5523    6.8242    0.0000 C   0  0  0  0  0  0  0  0  0  0  0  0
    3.6090    4.4508    0.0000 O   0  0  0  0  0  0  0  0  0  0  0  0
    4.8225    3.5691    0.0000 C   0  0  0  0  0  0  0  0  0  0  0  0
    4.6658    2.0773    0.0000 O   0  0  0  0  0  0  0  0  0  0  0  0
    3.2954    1.4672    0.0000 C   0  0  0  0  0  0  0  0  0  0  0  0
    3.6073    0.0000    0.0000 C   0  0  0  0  0  0  0  0  0  0  0  0
    5.1073    0.0000    0.0000 C   0  0  0  0  0  0  0  0  0  0  0  0
    3.2954   -1.4672    0.0000 C   0  0  0  0  0  0  0  0  0  0  0  0
    4.6658   -2.0773    0.0000 O   0  0  0  0  0  0  0  0  0  0  0  0
    4.8225   -3.5691    0.0000 C   0  0  0  0  0  0  0  0  0  0  0  0
    3.6090   -4.4508    0.0000 O   0  0  0  0  0  0  0  0  0  0  0  0
    3.7658   -5.9426    0.0000 C   0  0  0  0  0  0  0  0  0  0  0  0
    2.5523   -6.8242    0.0000 C   0  0  0  0  0  0  0  0  0  0  0  0
    5.1361   -6.5527    0.0000 C   0  0  0  0  0  0  0  0  0  0  0  0
    6.3497   -5.6710    0.0000 C   0  0  0  0  0  0  0  0  0  0  0  0
    7.7200   -6.2811    0.0000 N   0  0  0  0  0  0  0  0  0  0  0  0
    7.8768   -7.7729    0.0000 C   0  0  0  0  0  0  0  0  0  0  0  0
    8.9335   -5.3994    0.0000 C   0  0  0  0  0  0  0  0  0  0  0  0
    6.1929   -4.1792    0.0000 C   0  0  0  0  0  0  0  0  0  0  0  0
    7.4064   -3.2975    0.0000 O   0  0  0  0  0  0  0  0  0  0  0  0
    2.4138   -2.6807    0.0000 C   0  0  0  0  0  0  0  0  0  0  0  0
    3.8692   -3.0436    0.0000 C   0  0  0  0  0  0  0  0  0  0  0  0
    2.6225   -4.1661    0.0000 O   0  0  0  0  0  0  0  0  0  0  0  0
    1.1147   -3.4307    0.0000 C   0  0  0  0  0  0  0  0  0  0  0  0
   -0.3771   -3.5875    0.0000 C   0  0  0  0  0  0  0  0  0  0  0  0
   -0.5339   -5.0793    0.0000 C   0  0  0  0  0  0  0  0  0  0  0  0
   -1.8037   -3.1240    0.0000 C   0  0  0  0  0  0  0  0  0  0  0  0
   -2.9184   -2.1203    0.0000 N   0  0  0  0  0  0  0  0  0  0  0  0
   -4.1319   -3.0020    0.0000 C   0  0  0  0  0  0  0  0  0  0  0  0
   -3.5285   -0.7500    0.0000 C   0  0  0  0  0  0  0  0  0  0  0  0
   -4.9957   -1.0619    0.0000 C   0  0  0  0  0  0  0  0  0  0  0  0
   -3.5285    0.7500    0.0000 C   0  0  0  0  0  0  0  0  0  0  0  0
   -4.9957    1.0619    0.0000 O   0  0  0  0  0  0  0  0  0  0  0  0
   -2.9184    2.1203    0.0000 C   0  0  0  0  0  0  0  0  0  0  0  0
   -4.4175    2.1727    0.0000 C   0  0  0  0  0  0  0  0  0  0  0  0
   -3.4314    3.5299    0.0000 O   0  0  0  0  0  0  0  0  0  0  0  0
   -1.8037    3.1240    0.0000 C   0  0  0  0  0  0  0  0  0  0  0  0
   -2.5537    4.4231    0.0000 C   0  0  0  0  0  0  0  0  0  0  0  0
   -1.8037    5.7221    0.0000 C   0  0  0  0  0  0  0  0  0  0  0  0
   -0.3771    3.5875    0.0000 O   0  0  0  0  0  0  0  0  0  0  0  0
    1.1147    3.4307    0.0000 C   0  0  0  0  0  0  0  0  0  0  0  0
    1.5782    4.8573    0.0000 O   0  0  0  0  0  0  0  0  0  0  0  0
    2.4138    2.6807    0.0000 C   0  0  0  0  0  0  0  0  0  0  0  0
    3.0475    3.8728    0.0000 C   0  0  0  0  0  0  0  0  0  0  0  0
    6.1929    4.1792    0.0000 C   0  0  0  0  0  0  0  0  0  0  0  0
    6.3497    5.6710    0.0000 C   0  0  0  0  0  0  0  0  0  0  0  0
    7.7915    5.2575    0.0000 C   0  0  0  0  0  0  0  0  0  0  0  0
    7.0072    7.0192    0.0000 O   0  0  0  0  0  0  0  0  0  0  0  0
    8.5036    7.1238    0.0000 C   0  0  0  0  0  0  0  0  0  0  0  0
  1  2  1  0
  2  3  3  0
  3  4  1  0
  4  5  1  1
  4  6  1  0
  6  7  1  1
  6  8  1  0
  8  9  1  0
  9 10  1  6
 11 10  1  1
 11 12  1  0
 12 13  1  6
 12 14  1  0
 14 15  1  1
 16 15  1  1
 16 17  1  0
 17 18  1  0
 18 19  1  1
 18 20  1  0
 20 21  1  0
 21 22  1  1
 22 23  1  0
 22 24  1  0
 21 25  1  0
 25 26  1  6
 14 27  1  0
 27 28  1  1
 27 29  1  0
 27 30  1  0
 30 31  1  0
 31 32  1  1
 31 33  1  0
 33 34  1  0
 34 35  1  0
 34 36  1  0
 36 37  1  6
 36 38  1  0
 38 39  1  1
 38 40  1  0
 40 41  1  1
 40 42  1  0
 40 43  1  0
 43 44  1  1
 44 45  1  0
 43 46  1  0
 46 47  1  0
 47 48  2  0
 47 49  1  0
 49 50  1  6
  9 51  1  0
 51 52  1  0
 52 53  1  1
 52 54  1  0
 54 55  1  0
 52  4  1  0
 49 11  1  0
 25 16  1  0
M  END
>  <ChEMBL_IDs>  (453) 
CHEMBL434021

>  <target_organism>  (453) 
Rattus norvegicus

>  <target_molecule_pref_name>  (453) 
nan

>  <# Known Targets>  (453) 
nan

>  <Known Targets>  (453) 
nan

>  <smiles>  (453) 
CC#C[C@@]1(O)[C@H](C)O[C@@H](O[C@H]2[C@H](C)[C@@H](O[C@@H]3O[C@H](C)C[C@H](N(C)C)[C@H]3O)[C@](C)(O)C[C@@H](C)CN(C)[C@H](C)[C@@H](O)[C@](C)(O)[C@@H](CC)OC(=O)[C@@H]2C)C[C@@]1(C)OC

$$$$

     RDKit          2D

 56 58  0  0  0  0  0  0  0  0999 V2000
    5.8573   -1.2990    0.0000 C   0  0  0  0  0  0  0  0  0  0  0  0
    5.1073    0.0000    0.0000 C   0  0  0  0  0  0  0  0  0  0  0  0
    3.6073    0.0000    0.0000 C   0  0  0  0  0  0  0  0  0  0  0  0
    3.2954    1.4672    0.0000 O   0  0  0  0  0  0  0  0  0  0  0  0
    2.4138    2.6807    0.0000 C   0  0  0  0  0  0  0  0  0  0  0  0
    3.4175    3.7955    0.0000 O   0  0  0  0  0  0  0  0  0  0  0  0
    1.1147    3.4307    0.0000 C   0  0  0  0  0  0  0  0  0  0  0  0
    1.8302    4.5756    0.0000 C   0  0  0  0  0  0  0  0  0  0  0  0
   -0.3771    3.5875    0.0000 C   0  0  0  0  0  0  0  0  0  0  0  0
   -0.5339    5.0793    0.0000 O   0  0  0  0  0  0  0  0  0  0  0  0
    0.6797    5.9610    0.0000 C   0  0  0  0  0  0  0  0  0  0  0  0
    0.5229    7.4528    0.0000 C   0  0  0  0  0  0  0  0  0  0  0  0
    1.7364    8.3345    0.0000 C   0  0  0  0  0  0  0  0  0  0  0  0
    2.5752    9.5780    0.0000 C   0  0  0  0  0  0  0  0  0  0  0  0
    0.6574    9.3764    0.0000 O   0  0  0  0  0  0  0  0  0  0  0  0
    1.0203   10.8319    0.0000 C   0  0  0  0  0  0  0  0  0  0  0  0
    3.1067    7.7244    0.0000 C   0  0  0  0  0  0  0  0  0  0  0  0
    3.4696    9.1798    0.0000 O   0  0  0  0  0  0  0  0  0  0  0  0
    4.6031    7.6197    0.0000 C   0  0  0  0  0  0  0  0  0  0  0  0
    6.0994    7.5151    0.0000 C   0  0  0  0  0  0  0  0  0  0  0  0
    7.5958    7.4105    0.0000 C   0  0  0  0  0  0  0  0  0  0  0  0
    8.4345    8.6540    0.0000 O   0  0  0  0  0  0  0  0  0  0  0  0
    9.9309    8.5494    0.0000 C   0  0  0  0  0  0  0  0  0  0  0  0
    3.2635    6.2326    0.0000 C   0  0  0  0  0  0  0  0  0  0  0  0
    4.6338    5.6225    0.0000 C   0  0  0  0  0  0  0  0  0  0  0  0
    2.0500    5.3509    0.0000 O   0  0  0  0  0  0  0  0  0  0  0  0
   -1.8037    3.1240    0.0000 C   0  0  0  0  0  0  0  0  0  0  0  0
   -2.5537    4.4231    0.0000 C   0  0  0  0  0  0  0  0  0  0  0  0
   -2.9184    2.1203    0.0000 C   0  0  0  0  0  0  0  0  0  0  0  0
   -4.1319    3.0020    0.0000 O   0  0  0  0  0  0  0  0  0  0  0  0
   -5.5022    2.3919    0.0000 C   0  0  0  0  0  0  0  0  0  0  0  0
   -6.7157    3.2736    0.0000 O   0  0  0  0  0  0  0  0  0  0  0  0
   -8.0861    2.6635    0.0000 C   0  0  0  0  0  0  0  0  0  0  0  0
   -9.2996    3.5451    0.0000 C   0  0  0  0  0  0  0  0  0  0  0  0
   -8.2428    1.1717    0.0000 C   0  0  0  0  0  0  0  0  0  0  0  0
   -7.0293    0.2900    0.0000 C   0  0  0  0  0  0  0  0  0  0  0  0
   -7.1861   -1.2018    0.0000 N   0  0  0  0  0  0  0  0  0  0  0  0
   -8.5564   -1.8119    0.0000 C   0  0  0  0  0  0  0  0  0  0  0  0
   -5.9726   -2.0835    0.0000 C   0  0  0  0  0  0  0  0  0  0  0  0
   -5.6590    0.9001    0.0000 C   0  0  0  0  0  0  0  0  0  0  0  0
   -5.0760    0.3564    0.0000 O   0  0  0  0  0  0  0  0  0  0  0  0
   -3.5285    0.7500    0.0000 C   0  0  0  0  0  0  0  0  0  0  0  0
   -4.2257    0.3635    0.0000 C   0  0  0  0  0  0  0  0  0  0  0  0
   -4.5705    1.8290    0.0000 O   0  0  0  0  0  0  0  0  0  0  0  0
   -3.5285   -0.7500    0.0000 C   0  0  0  0  0  0  0  0  0  0  0  0
   -2.9184   -2.1203    0.0000 C   0  0  0  0  0  0  0  0  0  0  0  0
   -4.1319   -3.0020    0.0000 C   0  0  0  0  0  0  0  0  0  0  0  0
   -1.8037   -3.1240    0.0000 C   0  0  0  0  0  0  0  0  0  0  0  0
   -0.3771   -3.5875    0.0000 N   0  0  0  0  0  0  0  0  0  0  0  0
    1.1147   -3.4307    0.0000 C   0  0  0  0  0  0  0  0  0  0  0  0
    1.5782   -4.8573    0.0000 C   0  0  0  0  0  0  0  0  0  0  0  0
    2.4138   -2.6807    0.0000 C   0  0  0  0  0  0  0  0  0  0  0  0
    3.4175   -3.7955    0.0000 O   0  0  0  0  0  0  0  0  0  0  0  0
    3.2954   -1.4672    0.0000 C   0  0  0  0  0  0  0  0  0  0  0  0
    4.7726   -1.2067    0.0000 C   0  0  0  0  0  0  0  0  0  0  0  0
    4.0903   -2.7393    0.0000 O   0  0  0  0  0  0  0  0  0  0  0  0
  1  2  1  0
  3  2  1  6
  3  4  1  0
  4  5  1  0
  5  6  2  0
  5  7  1  0
  7  8  1  1
  7  9  1  0
  9 10  1  6
 11 10  1  1
 11 12  1  0
 12 13  1  0
 13 14  1  6
 13 15  1  0
 15 16  1  0
 13 17  1  0
 17 18  1  6
 17 19  1  0
 19 20  3  0
 20 21  1  0
 21 22  1  0
 22 23  1  0
 17 24  1  0
 24 25  1  6
 24 26  1  0
  9 27  1  0
 27 28  1  1
 27 29  1  0
 29 30  1  6
 31 30  1  1
 31 32  1  0
 32 33  1  0
 33 34  1  1
 33 35  1  0
 35 36  1  0
 36 37  1  1
 37 38  1  0
 37 39  1  0
 36 40  1  0
 40 41  1  6
 29 42  1  0
 42 43  1  6
 42 44  1  0
 42 45  1  0
 45 46  1  0
 46 47  1  6
 46 48  1  0
 48 49  1  0
 49 50  1  0
 50 51  1  1
 50 52  1  0
 52 53  1  6
 52 54  1  0
 54 55  1  6
 54 56  1  0
 54  3  1  0
 26 11  1  0
 40 31  1  0
M  END
>  <ChEMBL_IDs>  (454) 
CHEMBL304634

>  <target_organism>  (454) 
None

>  <target_molecule_pref_name>  (454) 
nan

>  <# Known Targets>  (454) 
nan

>  <Known Targets>  (454) 
nan

>  <smiles>  (454) 
CC[C@H]1OC(=O)[C@H](C)[C@@H](O[C@H]2C[C@@](C)(OC)[C@@](O)(C#CCOC)[C@H](C)O2)[C@H](C)[C@@H](O[C@@H]2O[C@H](C)C[C@H](N(C)C)[C@H]2O)[C@](C)(O)C[C@@H](C)CN[C@H](C)[C@@H](O)[C@]1(C)O

$$$$

     RDKit          2D

 57 59  0  0  0  0  0  0  0  0999 V2000
    7.8705    2.5981    0.0000 C   0  0  0  0  0  0  0  0  0  0  0  0
    7.1205    1.2990    0.0000 C   0  0  0  0  0  0  0  0  0  0  0  0
    5.6205    1.2990    0.0000 O   0  0  0  0  0  0  0  0  0  0  0  0
    4.8705    0.0000    0.0000 N   0  0  0  0  0  0  0  0  0  0  0  0
    3.3705    0.0000    0.0000 C   0  0  0  0  0  0  0  0  0  0  0  0
    3.0367   -1.4624    0.0000 C   0  0  0  0  0  0  0  0  0  0  0  0
    4.3881   -2.1132    0.0000 C   0  0  0  0  0  0  0  0  0  0  0  0
    2.1015   -2.6351    0.0000 C   0  0  0  0  0  0  0  0  0  0  0  0
    3.0367   -3.8079    0.0000 O   0  0  0  0  0  0  0  0  0  0  0  0
    0.7500   -3.2860    0.0000 C   0  0  0  0  0  0  0  0  0  0  0  0
    1.8496   -4.3062    0.0000 C   0  0  0  0  0  0  0  0  0  0  0  0
    0.2020   -4.6823    0.0000 O   0  0  0  0  0  0  0  0  0  0  0  0
   -0.7500   -3.2860    0.0000 C   0  0  0  0  0  0  0  0  0  0  0  0
   -1.0838   -4.7484    0.0000 C   0  0  0  0  0  0  0  0  0  0  0  0
   -2.5171   -5.1905    0.0000 C   0  0  0  0  0  0  0  0  0  0  0  0
   -2.1015   -2.6351    0.0000 O   0  0  0  0  0  0  0  0  0  0  0  0
   -3.0367   -1.4624    0.0000 C   0  0  0  0  0  0  0  0  0  0  0  0
   -4.3881   -2.1132    0.0000 O   0  0  0  0  0  0  0  0  0  0  0  0
   -3.3705    0.0000    0.0000 C   0  0  0  0  0  0  0  0  0  0  0  0
   -4.6804   -0.3267    0.0000 C   0  0  0  0  0  0  0  0  0  0  0  0
   -3.0367    1.4624    0.0000 C   0  0  0  0  0  0  0  0  0  0  0  0
   -4.3881    2.1132    0.0000 O   0  0  0  0  0  0  0  0  0  0  0  0
   -5.6275    1.2682    0.0000 C   0  0  0  0  0  0  0  0  0  0  0  0
   -6.9790    1.9191    0.0000 C   0  0  0  0  0  0  0  0  0  0  0  0
   -8.2183    1.0741    0.0000 C   0  0  0  0  0  0  0  0  0  0  0  0
   -9.6719    0.7039    0.0000 C   0  0  0  0  0  0  0  0  0  0  0  0
   -8.8352    2.4413    0.0000 O   0  0  0  0  0  0  0  0  0  0  0  0
  -10.3278    2.5907    0.0000 C   0  0  0  0  0  0  0  0  0  0  0  0
   -8.1062   -0.4217    0.0000 C   0  0  0  0  0  0  0  0  0  0  0  0
   -9.3456   -1.2667    0.0000 O   0  0  0  0  0  0  0  0  0  0  0  0
   -9.2335   -2.7625    0.0000 C   0  0  0  0  0  0  0  0  0  0  0  0
  -10.4728   -3.6075    0.0000 C   0  0  0  0  0  0  0  0  0  0  0  0
   -7.8820   -3.4133    0.0000 O   0  0  0  0  0  0  0  0  0  0  0  0
   -6.7548   -1.0725    0.0000 C   0  0  0  0  0  0  0  0  0  0  0  0
   -6.6427   -2.5684    0.0000 C   0  0  0  0  0  0  0  0  0  0  0  0
   -5.5154   -0.2276    0.0000 O   0  0  0  0  0  0  0  0  0  0  0  0
   -2.1015    2.6351    0.0000 C   0  0  0  0  0  0  0  0  0  0  0  0
   -3.0367    3.8079    0.0000 C   0  0  0  0  0  0  0  0  0  0  0  0
   -0.7500    3.2860    0.0000 C   0  0  0  0  0  0  0  0  0  0  0  0
   -1.0838    4.7484    0.0000 O   0  0  0  0  0  0  0  0  0  0  0  0
    0.0158    5.7686    0.0000 C   0  0  0  0  0  0  0  0  0  0  0  0
    1.4492    5.3265    0.0000 O   0  0  0  0  0  0  0  0  0  0  0  0
    2.5487    6.3467    0.0000 C   0  0  0  0  0  0  0  0  0  0  0  0
    3.9821    5.9046    0.0000 C   0  0  0  0  0  0  0  0  0  0  0  0
    2.2150    7.8091    0.0000 C   0  0  0  0  0  0  0  0  0  0  0  0
    0.7816    8.2513    0.0000 C   0  0  0  0  0  0  0  0  0  0  0  0
    0.4478    9.7137    0.0000 N   0  0  0  0  0  0  0  0  0  0  0  0
    1.5474   10.7339    0.0000 C   0  0  0  0  0  0  0  0  0  0  0  0
   -0.9855   10.1558    0.0000 C   0  0  0  0  0  0  0  0  0  0  0  0
   -0.3180    7.2310    0.0000 C   0  0  0  0  0  0  0  0  0  0  0  0
   -1.7513    7.6731    0.0000 O   0  0  0  0  0  0  0  0  0  0  0  0
    0.7500    3.2860    0.0000 C   0  0  0  0  0  0  0  0  0  0  0  0
    0.2020    4.6823    0.0000 C   0  0  0  0  0  0  0  0  0  0  0  0
    1.8496    4.3062    0.0000 O   0  0  0  0  0  0  0  0  0  0  0  0
    2.1015    2.6351    0.0000 C   0  0  0  0  0  0  0  0  0  0  0  0
    3.0367    1.4624    0.0000 C   0  0  0  0  0  0  0  0  0  0  0  0
    4.3881    2.1132    0.0000 C   0  0  0  0  0  0  0  0  0  0  0  0
  1  2  1  0
  2  3  1  0
  3  4  1  0
  4  5  2  0
  5  6  1  0
  6  7  1  6
  6  8  1  0
  8  9  1  1
  8 10  1  0
 10 11  1  1
 10 12  1  0
 10 13  1  0
 13 14  1  1
 14 15  1  0
 13 16  1  0
 16 17  1  0
 17 18  2  0
 17 19  1  0
 19 20  1  6
 19 21  1  0
 21 22  1  1
 23 22  1  6
 23 24  1  0
 24 25  1  0
 25 26  1  1
 25 27  1  0
 27 28  1  0
 25 29  1  0
 29 30  1  6
 30 31  1  0
 31 32  1  0
 31 33  2  0
 29 34  1  0
 34 35  1  1
 34 36  1  0
 21 37  1  0
 37 38  1  6
 37 39  1  0
 39 40  1  1
 41 40  1  1
 41 42  1  0
 42 43  1  0
 43 44  1  1
 43 45  1  0
 45 46  1  0
 46 47  1  1
 47 48  1  0
 47 49  1  0
 46 50  1  0
 50 51  1  6
 39 52  1  0
 52 53  1  1
 52 54  1  0
 52 55  1  0
 55 56  1  0
 56 57  1  1
 56  5  1  0
 36 23  1  0
 50 41  1  0
M  END
>  <ChEMBL_IDs>  (455) 
nan

>  <target_organism>  (455) 
nan

>  <target_molecule_pref_name>  (455) 
nan

>  <# Known Targets>  (455) 
nan

>  <Known Targets>  (455) 
nan

>  <smiles>  (455) 
CCO/N=C1/[C@H](C)[C@@H](O)[C@](C)(O)[C@@H](CC)OC(=O)[C@H](C)[C@@H](O[C@H]2C[C@@](C)(OC)[C@@H](OC(C)=O)[C@H](C)O2)[C@H](C)[C@@H](O[C@@H]2O[C@H](C)C[C@H](N(C)C)[C@H]2O)[C@](C)(O)C[C@H]1C

$$$$

     RDKit          2D

 56 58  0  0  0  0  0  0  0  0999 V2000
    5.6205   -1.2990    0.0000 C   0  0  0  0  0  0  0  0  0  0  0  0
    4.8705    0.0000    0.0000 C   0  0  0  0  0  0  0  0  0  0  0  0
    3.3705    0.0000    0.0000 C   0  0  0  0  0  0  0  0  0  0  0  0
    3.0367   -1.4624    0.0000 O   0  0  0  0  0  0  0  0  0  0  0  0
    2.1015   -2.6351    0.0000 C   0  0  0  0  0  0  0  0  0  0  0  0
    3.0367   -3.8079    0.0000 O   0  0  0  0  0  0  0  0  0  0  0  0
    0.7500   -3.2860    0.0000 C   0  0  0  0  0  0  0  0  0  0  0  0
    1.3600   -4.4903    0.0000 C   0  0  0  0  0  0  0  0  0  0  0  0
   -0.7500   -3.2860    0.0000 C   0  0  0  0  0  0  0  0  0  0  0  0
   -1.0838   -4.7484    0.0000 O   0  0  0  0  0  0  0  0  0  0  0  0
    0.0158   -5.7686    0.0000 C   0  0  0  0  0  0  0  0  0  0  0  0
   -0.3180   -7.2310    0.0000 C   0  0  0  0  0  0  0  0  0  0  0  0
    0.7816   -8.2513    0.0000 C   0  0  0  0  0  0  0  0  0  0  0  0
    1.4659   -9.5861    0.0000 C   0  0  0  0  0  0  0  0  0  0  0  0
   -0.4141   -9.1570    0.0000 O   0  0  0  0  0  0  0  0  0  0  0  0
   -0.2276  -10.6453    0.0000 C   0  0  0  0  0  0  0  0  0  0  0  0
    2.2150   -7.8091    0.0000 C   0  0  0  0  0  0  0  0  0  0  0  0
    3.3145   -8.8294    0.0000 O   0  0  0  0  0  0  0  0  0  0  0  0
    2.5487   -6.3467    0.0000 C   0  0  0  0  0  0  0  0  0  0  0  0
    3.9821   -5.9046    0.0000 C   0  0  0  0  0  0  0  0  0  0  0  0
    1.4492   -5.3265    0.0000 O   0  0  0  0  0  0  0  0  0  0  0  0
   -2.1015   -2.6351    0.0000 C   0  0  0  0  0  0  0  0  0  0  0  0
   -3.0367   -3.8079    0.0000 C   0  0  0  0  0  0  0  0  0  0  0  0
   -3.0367   -1.4624    0.0000 C   0  0  0  0  0  0  0  0  0  0  0  0
   -4.3881   -2.1132    0.0000 O   0  0  0  0  0  0  0  0  0  0  0  0
   -5.6275   -1.2682    0.0000 C   0  0  0  0  0  0  0  0  0  0  0  0
   -5.5154    0.2276    0.0000 O   0  0  0  0  0  0  0  0  0  0  0  0
   -6.7548    1.0725    0.0000 C   0  0  0  0  0  0  0  0  0  0  0  0
   -6.6427    2.5684    0.0000 C   0  0  0  0  0  0  0  0  0  0  0  0
   -8.1062    0.4217    0.0000 C   0  0  0  0  0  0  0  0  0  0  0  0
   -8.2183   -1.0741    0.0000 C   0  0  0  0  0  0  0  0  0  0  0  0
   -9.5698   -1.7249    0.0000 N   0  0  0  0  0  0  0  0  0  0  0  0
  -10.8091   -0.8799    0.0000 C   0  0  0  0  0  0  0  0  0  0  0  0
   -9.6819   -3.2207    0.0000 C   0  0  0  0  0  0  0  0  0  0  0  0
   -6.9790   -1.9191    0.0000 C   0  0  0  0  0  0  0  0  0  0  0  0
   -7.0910   -3.4149    0.0000 O   0  0  0  0  0  0  0  0  0  0  0  0
   -3.3705    0.0000    0.0000 C   0  0  0  0  0  0  0  0  0  0  0  0
   -4.6098   -0.8450    0.0000 C   0  0  0  0  0  0  0  0  0  0  0  0
   -4.6098    0.8450    0.0000 O   0  0  0  0  0  0  0  0  0  0  0  0
   -3.0367    1.4624    0.0000 C   0  0  0  0  0  0  0  0  0  0  0  0
   -2.1015    2.6351    0.0000 C   0  0  0  0  0  0  0  0  0  0  0  0
   -3.0367    3.8079    0.0000 C   0  0  0  0  0  0  0  0  0  0  0  0
   -0.7500    3.2860    0.0000 C   0  0  0  0  0  0  0  0  0  0  0  0
   -1.0838    4.7484    0.0000 N   0  0  0  0  0  0  0  0  0  0  0  0
    0.0158    5.7686    0.0000 C   0  0  0  0  0  0  0  0  0  0  0  0
   -0.3180    7.2310    0.0000 C   0  0  0  0  0  0  0  0  0  0  0  0
    0.7816    8.2513    0.0000 C   0  0  0  0  0  0  0  0  0  0  0  0
    0.4478    9.7137    0.0000 C   0  0  0  0  0  0  0  0  0  0  0  0
    0.1140   11.1761    0.0000 N   0  0  0  0  0  0  0  0  0  0  0  0
    0.7500    3.2860    0.0000 C   0  0  0  0  0  0  0  0  0  0  0  0
    1.0838    4.7484    0.0000 C   0  0  0  0  0  0  0  0  0  0  0  0
    2.1015    2.6351    0.0000 C   0  0  0  0  0  0  0  0  0  0  0  0
    3.0367    3.8079    0.0000 O   0  0  0  0  0  0  0  0  0  0  0  0
    3.0367    1.4624    0.0000 C   0  0  0  0  0  0  0  0  0  0  0  0
    3.7867    2.7614    0.0000 C   0  0  0  0  0  0  0  0  0  0  0  0
    4.5199    1.2388    0.0000 O   0  0  0  0  0  0  0  0  0  0  0  0
  1  2  1  0
  3  2  1  1
  3  4  1  0
  4  5  1  0
  5  6  2  0
  5  7  1  0
  7  8  1  6
  7  9  1  0
  9 10  1  1
 10 11  1  0
 11 12  1  0
 12 13  1  0
 13 14  1  0
 13 15  1  0
 15 16  1  0
 13 17  1  0
 17 18  1  0
 17 19  1  0
 19 20  1  0
 19 21  1  0
  9 22  1  0
 22 23  1  6
 22 24  1  0
 24 25  1  1
 25 26  1  0
 26 27  1  0
 27 28  1  0
 28 29  1  0
 28 30  1  0
 30 31  1  0
 31 32  1  0
 32 33  1  0
 32 34  1  0
 31 35  1  0
 35 36  1  0
 24 37  1  0
 37 38  1  1
 37 39  1  0
 37 40  1  0
 40 41  1  0
 41 42  1  1
 41 43  1  0
 43 44  1  6
 44 45  1  0
 45 46  1  0
 46 47  1  0
 47 48  1  0
 48 49  3  0
 43 50  1  0
 50 51  1  6
 50 52  1  0
 52 53  1  1
 52 54  1  0
 54 55  1  1
 54 56  1  0
 54  3  1  0
 21 11  1  0
 35 26  1  0
M  END
>  <ChEMBL_IDs>  (456) 
CHEMBL431824

>  <target_organism>  (456) 
Rattus norvegicus

>  <target_molecule_pref_name>  (456) 
nan

>  <# Known Targets>  (456) 
nan

>  <Known Targets>  (456) 
nan

>  <smiles>  (456) 
CC[C@H]1OC(=O)[C@H](C)[C@@H](OC2CC(C)(OC)C(O)C(C)O2)[C@H](C)[C@@H](OC2OC(C)CC(N(C)C)C2O)[C@](C)(O)C[C@@H](C)[C@H](NCCCC#N)[C@H](C)[C@@H](O)[C@]1(C)O

$$$$

     RDKit          2D

 56 58  0  0  0  0  0  0  0  0999 V2000
   10.1205    3.8971    0.0000 C   0  0  0  0  0  0  0  0  0  0  0  0
    9.3705    2.5981    0.0000 C   0  0  0  0  0  0  0  0  0  0  0  0
    7.8705    2.5981    0.0000 C   0  0  0  0  0  0  0  0  0  0  0  0
    7.1205    1.2990    0.0000 C   0  0  0  0  0  0  0  0  0  0  0  0
    5.6205    1.2990    0.0000 O   0  0  0  0  0  0  0  0  0  0  0  0
    4.8705    0.0000    0.0000 N   0  0  0  0  0  0  0  0  0  0  0  0
    3.3705    0.0000    0.0000 C   0  0  0  0  0  0  0  0  0  0  0  0
    3.0367   -1.4624    0.0000 C   0  0  0  0  0  0  0  0  0  0  0  0
    4.3881   -2.1132    0.0000 C   0  0  0  0  0  0  0  0  0  0  0  0
    2.1015   -2.6351    0.0000 C   0  0  0  0  0  0  0  0  0  0  0  0
    3.0367   -3.8079    0.0000 O   0  0  0  0  0  0  0  0  0  0  0  0
    0.7500   -3.2860    0.0000 C   0  0  0  0  0  0  0  0  0  0  0  0
    1.8496   -4.3062    0.0000 C   0  0  0  0  0  0  0  0  0  0  0  0
    0.2020   -4.6823    0.0000 O   0  0  0  0  0  0  0  0  0  0  0  0
   -0.7500   -3.2860    0.0000 C   0  0  0  0  0  0  0  0  0  0  0  0
   -1.0838   -4.7484    0.0000 C   0  0  0  0  0  0  0  0  0  0  0  0
   -2.5171   -5.1905    0.0000 C   0  0  0  0  0  0  0  0  0  0  0  0
   -2.1015   -2.6351    0.0000 O   0  0  0  0  0  0  0  0  0  0  0  0
   -3.0367   -1.4624    0.0000 C   0  0  0  0  0  0  0  0  0  0  0  0
   -4.3881   -2.1132    0.0000 O   0  0  0  0  0  0  0  0  0  0  0  0
   -3.3705    0.0000    0.0000 C   0  0  0  0  0  0  0  0  0  0  0  0
   -4.6804   -0.3267    0.0000 C   0  0  0  0  0  0  0  0  0  0  0  0
   -3.0367    1.4624    0.0000 C   0  0  0  0  0  0  0  0  0  0  0  0
   -4.3881    2.1132    0.0000 O   0  0  0  0  0  0  0  0  0  0  0  0
   -5.6275    1.2682    0.0000 C   0  0  0  0  0  0  0  0  0  0  0  0
   -6.9790    1.9191    0.0000 C   0  0  0  0  0  0  0  0  0  0  0  0
   -8.2183    1.0741    0.0000 C   0  0  0  0  0  0  0  0  0  0  0  0
   -9.6719    0.7039    0.0000 C   0  0  0  0  0  0  0  0  0  0  0  0
   -8.8352    2.4413    0.0000 O   0  0  0  0  0  0  0  0  0  0  0  0
  -10.3278    2.5907    0.0000 C   0  0  0  0  0  0  0  0  0  0  0  0
   -8.1062   -0.4217    0.0000 C   0  0  0  0  0  0  0  0  0  0  0  0
   -9.3456   -1.2667    0.0000 O   0  0  0  0  0  0  0  0  0  0  0  0
   -6.7548   -1.0725    0.0000 C   0  0  0  0  0  0  0  0  0  0  0  0
   -6.6427   -2.5684    0.0000 C   0  0  0  0  0  0  0  0  0  0  0  0
   -5.5154   -0.2276    0.0000 O   0  0  0  0  0  0  0  0  0  0  0  0
   -2.1015    2.6351    0.0000 C   0  0  0  0  0  0  0  0  0  0  0  0
   -3.0367    3.8079    0.0000 C   0  0  0  0  0  0  0  0  0  0  0  0
   -0.7500    3.2860    0.0000 C   0  0  0  0  0  0  0  0  0  0  0  0
   -1.0838    4.7484    0.0000 O   0  0  0  0  0  0  0  0  0  0  0  0
    0.0158    5.7686    0.0000 C   0  0  0  0  0  0  0  0  0  0  0  0
    1.4492    5.3265    0.0000 O   0  0  0  0  0  0  0  0  0  0  0  0
    2.5487    6.3467    0.0000 C   0  0  0  0  0  0  0  0  0  0  0  0
    3.9821    5.9046    0.0000 C   0  0  0  0  0  0  0  0  0  0  0  0
    2.2150    7.8091    0.0000 C   0  0  0  0  0  0  0  0  0  0  0  0
    0.7816    8.2513    0.0000 C   0  0  0  0  0  0  0  0  0  0  0  0
    0.4478    9.7137    0.0000 N   0  0  0  0  0  0  0  0  0  0  0  0
    1.5474   10.7339    0.0000 C   0  0  0  0  0  0  0  0  0  0  0  0
   -0.9855   10.1558    0.0000 C   0  0  0  0  0  0  0  0  0  0  0  0
   -0.3180    7.2310    0.0000 C   0  0  0  0  0  0  0  0  0  0  0  0
   -1.7513    7.6731    0.0000 O   0  0  0  0  0  0  0  0  0  0  0  0
    0.7500    3.2860    0.0000 C   0  0  0  0  0  0  0  0  0  0  0  0
    0.2020    4.6823    0.0000 C   0  0  0  0  0  0  0  0  0  0  0  0
    1.8496    4.3062    0.0000 O   0  0  0  0  0  0  0  0  0  0  0  0
    2.1015    2.6351    0.0000 C   0  0  0  0  0  0  0  0  0  0  0  0
    3.0367    1.4624    0.0000 C   0  0  0  0  0  0  0  0  0  0  0  0
    4.3881    2.1132    0.0000 C   0  0  0  0  0  0  0  0  0  0  0  0
  1  2  1  0
  2  3  1  0
  3  4  1  0
  4  5  1  0
  5  6  1  0
  6  7  2  0
  7  8  1  0
  8  9  1  6
  8 10  1  0
 10 11  1  1
 10 12  1  0
 12 13  1  1
 12 14  1  0
 12 15  1  0
 15 16  1  1
 16 17  1  0
 15 18  1  0
 18 19  1  0
 19 20  2  0
 19 21  1  0
 21 22  1  6
 21 23  1  0
 23 24  1  1
 24 25  1  0
 25 26  1  0
 26 27  1  0
 27 28  1  1
 27 29  1  0
 29 30  1  0
 27 31  1  0
 31 32  1  6
 31 33  1  0
 33 34  1  1
 33 35  1  0
 23 36  1  0
 36 37  1  6
 36 38  1  0
 38 39  1  1
 40 39  1  1
 40 41  1  0
 41 42  1  0
 42 43  1  1
 42 44  1  0
 44 45  1  0
 45 46  1  1
 46 47  1  0
 46 48  1  0
 45 49  1  0
 49 50  1  6
 38 51  1  0
 51 52  1  1
 51 53  1  0
 51 54  1  0
 54 55  1  0
 55 56  1  1
 55  7  1  0
 35 25  1  0
 49 40  1  0
M  END
>  <ChEMBL_IDs>  (457) 
nan

>  <target_organism>  (457) 
nan

>  <target_molecule_pref_name>  (457) 
nan

>  <# Known Targets>  (457) 
nan

>  <Known Targets>  (457) 
nan

>  <smiles>  (457) 
CCCCO/N=C1/[C@H](C)[C@@H](O)[C@](C)(O)[C@@H](CC)OC(=O)[C@H](C)[C@@H](OC2C[C@@](C)(OC)[C@@H](O)[C@H](C)O2)[C@H](C)[C@@H](O[C@@H]2O[C@H](C)C[C@H](N(C)C)[C@H]2O)[C@](C)(O)C[C@H]1C

$$$$

     RDKit          2D

 58 60  0  0  0  0  0  0  0  0999 V2000
    5.6205   -1.2990    0.0000 C   0  0  0  0  0  0  0  0  0  0  0  0
    4.8705    0.0000    0.0000 C   0  0  0  0  0  0  0  0  0  0  0  0
    3.3705    0.0000    0.0000 C   0  0  0  0  0  0  0  0  0  0  0  0
    3.0367   -1.4624    0.0000 O   0  0  0  0  0  0  0  0  0  0  0  0
    2.1015   -2.6351    0.0000 C   0  0  0  0  0  0  0  0  0  0  0  0
    3.0367   -3.8079    0.0000 O   0  0  0  0  0  0  0  0  0  0  0  0
    0.7500   -3.2860    0.0000 C   0  0  0  0  0  0  0  0  0  0  0  0
    1.3600   -4.4903    0.0000 C   0  0  0  0  0  0  0  0  0  0  0  0
   -0.7500   -3.2860    0.0000 C   0  0  0  0  0  0  0  0  0  0  0  0
   -1.0838   -4.7484    0.0000 O   0  0  0  0  0  0  0  0  0  0  0  0
    0.0158   -5.7686    0.0000 C   0  0  0  0  0  0  0  0  0  0  0  0
   -0.3180   -7.2310    0.0000 C   0  0  0  0  0  0  0  0  0  0  0  0
    0.7816   -8.2513    0.0000 C   0  0  0  0  0  0  0  0  0  0  0  0
    1.4659   -9.5861    0.0000 C   0  0  0  0  0  0  0  0  0  0  0  0
   -0.4141   -9.1570    0.0000 O   0  0  0  0  0  0  0  0  0  0  0  0
   -0.2276  -10.6453    0.0000 C   0  0  0  0  0  0  0  0  0  0  0  0
    2.2150   -7.8091    0.0000 C   0  0  0  0  0  0  0  0  0  0  0  0
    3.3145   -8.8294    0.0000 O   0  0  0  0  0  0  0  0  0  0  0  0
    2.5487   -6.3467    0.0000 C   0  0  0  0  0  0  0  0  0  0  0  0
    3.9821   -5.9046    0.0000 C   0  0  0  0  0  0  0  0  0  0  0  0
    1.4492   -5.3265    0.0000 O   0  0  0  0  0  0  0  0  0  0  0  0
   -2.1015   -2.6351    0.0000 C   0  0  0  0  0  0  0  0  0  0  0  0
   -3.0367   -3.8079    0.0000 C   0  0  0  0  0  0  0  0  0  0  0  0
   -3.0367   -1.4624    0.0000 C   0  0  0  0  0  0  0  0  0  0  0  0
   -4.3881   -2.1132    0.0000 O   0  0  0  0  0  0  0  0  0  0  0  0
   -5.6275   -1.2682    0.0000 C   0  0  0  0  0  0  0  0  0  0  0  0
   -5.5154    0.2276    0.0000 O   0  0  0  0  0  0  0  0  0  0  0  0
   -6.7548    1.0725    0.0000 C   0  0  0  0  0  0  0  0  0  0  0  0
   -6.6427    2.5684    0.0000 C   0  0  0  0  0  0  0  0  0  0  0  0
   -8.1062    0.4217    0.0000 C   0  0  0  0  0  0  0  0  0  0  0  0
   -8.2183   -1.0741    0.0000 C   0  0  0  0  0  0  0  0  0  0  0  0
   -9.5698   -1.7249    0.0000 N   0  0  0  0  0  0  0  0  0  0  0  0
  -10.8091   -0.8799    0.0000 C   0  0  0  0  0  0  0  0  0  0  0  0
   -9.6819   -3.2207    0.0000 C   0  0  0  0  0  0  0  0  0  0  0  0
   -6.9790   -1.9191    0.0000 C   0  0  0  0  0  0  0  0  0  0  0  0
   -7.0910   -3.4149    0.0000 O   0  0  0  0  0  0  0  0  0  0  0  0
   -3.3705    0.0000    0.0000 C   0  0  0  0  0  0  0  0  0  0  0  0
   -4.6098   -0.8450    0.0000 C   0  0  0  0  0  0  0  0  0  0  0  0
   -4.6098    0.8450    0.0000 O   0  0  0  0  0  0  0  0  0  0  0  0
   -3.0367    1.4624    0.0000 C   0  0  0  0  0  0  0  0  0  0  0  0
   -2.1015    2.6351    0.0000 C   0  0  0  0  0  0  0  0  0  0  0  0
   -3.0367    3.8079    0.0000 C   0  0  0  0  0  0  0  0  0  0  0  0
   -0.7500    3.2860    0.0000 C   0  0  0  0  0  0  0  0  0  0  0  0
   -1.0838    4.7484    0.0000 N   0  0  0  0  0  0  0  0  0  0  0  0
   -2.5171    5.1905    0.0000 O   0  0  0  0  0  0  0  0  0  0  0  0
   -2.8509    6.6529    0.0000 C   0  0  0  0  0  0  0  0  0  0  0  0
   -4.2843    7.0950    0.0000 O   0  0  0  0  0  0  0  0  0  0  0  0
   -4.6181    8.5574    0.0000 C   0  0  0  0  0  0  0  0  0  0  0  0
   -6.0514    8.9995    0.0000 C   0  0  0  0  0  0  0  0  0  0  0  0
   -6.3852   10.4619    0.0000 O   0  0  0  0  0  0  0  0  0  0  0  0
   -7.8186   10.9041    0.0000 C   0  0  0  0  0  0  0  0  0  0  0  0
    0.7500    3.2860    0.0000 C   0  0  0  0  0  0  0  0  0  0  0  0
    1.0838    4.7484    0.0000 C   0  0  0  0  0  0  0  0  0  0  0  0
    2.1015    2.6351    0.0000 C   0  0  0  0  0  0  0  0  0  0  0  0
    3.0367    3.8079    0.0000 O   0  0  0  0  0  0  0  0  0  0  0  0
    3.0367    1.4624    0.0000 C   0  0  0  0  0  0  0  0  0  0  0  0
    3.7867    2.7614    0.0000 C   0  0  0  0  0  0  0  0  0  0  0  0
    4.5199    1.2388    0.0000 O   0  0  0  0  0  0  0  0  0  0  0  0
  1  2  1  0
  2  3  1  0
  3  4  1  0
  4  5  1  0
  5  6  2  0
  5  7  1  0
  7  8  1  0
  7  9  1  0
  9 10  1  0
 10 11  1  0
 11 12  1  0
 12 13  1  0
 13 14  1  0
 13 15  1  0
 15 16  1  0
 13 17  1  0
 17 18  1  0
 17 19  1  0
 19 20  1  0
 19 21  1  0
  9 22  1  0
 22 23  1  0
 22 24  1  0
 24 25  1  0
 25 26  1  0
 26 27  1  0
 27 28  1  0
 28 29  1  0
 28 30  1  0
 30 31  1  0
 31 32  1  0
 32 33  1  0
 32 34  1  0
 31 35  1  0
 35 36  1  0
 24 37  1  0
 37 38  1  0
 37 39  1  0
 37 40  1  0
 40 41  1  0
 41 42  1  0
 41 43  1  0
 43 44  2  0
 44 45  1  0
 45 46  1  0
 46 47  1  0
 47 48  1  0
 48 49  1  0
 49 50  1  0
 50 51  1  0
 43 52  1  0
 52 53  1  0
 52 54  1  0
 54 55  1  0
 54 56  1  0
 56 57  1  0
 56 58  1  0
 56  3  1  0
 21 11  1  0
 35 26  1  0
M  END
>  <ChEMBL_IDs>  (458) 
nan

>  <target_organism>  (458) 
nan

>  <target_molecule_pref_name>  (458) 
nan

>  <# Known Targets>  (458) 
nan

>  <Known Targets>  (458) 
nan

>  <smiles>  (458) 
CCC1OC(=O)C(C)C(OC2CC(C)(OC)C(O)C(C)O2)C(C)C(OC2OC(C)CC(N(C)C)C2O)C(C)(O)CC(C)/C(=N\OCOCCOC)C(C)C(O)C1(C)O

$$$$

     RDKit          2D

 58 60  0  0  0  0  0  0  0  0999 V2000
    5.6205   -1.2990    0.0000 C   0  0  0  0  0  0  0  0  0  0  0  0
    4.8705    0.0000    0.0000 C   0  0  0  0  0  0  0  0  0  0  0  0
    3.3705    0.0000    0.0000 C   0  0  0  0  0  0  0  0  0  0  0  0
    3.0367   -1.4624    0.0000 O   0  0  0  0  0  0  0  0  0  0  0  0
    2.1015   -2.6351    0.0000 C   0  0  0  0  0  0  0  0  0  0  0  0
    3.0367   -3.8079    0.0000 O   0  0  0  0  0  0  0  0  0  0  0  0
    0.7500   -3.2860    0.0000 C   0  0  0  0  0  0  0  0  0  0  0  0
    1.3600   -4.4903    0.0000 C   0  0  0  0  0  0  0  0  0  0  0  0
   -0.7500   -3.2860    0.0000 C   0  0  0  0  0  0  0  0  0  0  0  0
   -1.0838   -4.7484    0.0000 O   0  0  0  0  0  0  0  0  0  0  0  0
    0.0158   -5.7686    0.0000 C   0  0  0  0  0  0  0  0  0  0  0  0
   -0.3180   -7.2310    0.0000 C   0  0  0  0  0  0  0  0  0  0  0  0
    0.7816   -8.2513    0.0000 C   0  0  0  0  0  0  0  0  0  0  0  0
    1.4659   -9.5861    0.0000 C   0  0  0  0  0  0  0  0  0  0  0  0
   -0.4141   -9.1570    0.0000 O   0  0  0  0  0  0  0  0  0  0  0  0
   -0.2276  -10.6453    0.0000 C   0  0  0  0  0  0  0  0  0  0  0  0
    2.2150   -7.8091    0.0000 C   0  0  0  0  0  0  0  0  0  0  0  0
    3.3145   -8.8294    0.0000 O   0  0  0  0  0  0  0  0  0  0  0  0
    2.5487   -6.3467    0.0000 C   0  0  0  0  0  0  0  0  0  0  0  0
    3.9821   -5.9046    0.0000 C   0  0  0  0  0  0  0  0  0  0  0  0
    1.4492   -5.3265    0.0000 O   0  0  0  0  0  0  0  0  0  0  0  0
   -2.1015   -2.6351    0.0000 C   0  0  0  0  0  0  0  0  0  0  0  0
   -3.0367   -3.8079    0.0000 C   0  0  0  0  0  0  0  0  0  0  0  0
   -3.0367   -1.4624    0.0000 C   0  0  0  0  0  0  0  0  0  0  0  0
   -4.3881   -2.1132    0.0000 O   0  0  0  0  0  0  0  0  0  0  0  0
   -5.6275   -1.2682    0.0000 C   0  0  0  0  0  0  0  0  0  0  0  0
   -5.5154    0.2276    0.0000 O   0  0  0  0  0  0  0  0  0  0  0  0
   -6.7548    1.0725    0.0000 C   0  0  0  0  0  0  0  0  0  0  0  0
   -6.6427    2.5684    0.0000 C   0  0  0  0  0  0  0  0  0  0  0  0
   -8.1062    0.4217    0.0000 C   0  0  0  0  0  0  0  0  0  0  0  0
   -8.2183   -1.0741    0.0000 C   0  0  0  0  0  0  0  0  0  0  0  0
   -9.5698   -1.7249    0.0000 N   0  0  0  0  0  0  0  0  0  0  0  0
  -10.8091   -0.8799    0.0000 C   0  0  0  0  0  0  0  0  0  0  0  0
   -9.6819   -3.2207    0.0000 C   0  0  0  0  0  0  0  0  0  0  0  0
   -6.9790   -1.9191    0.0000 C   0  0  0  0  0  0  0  0  0  0  0  0
   -7.0910   -3.4149    0.0000 O   0  0  0  0  0  0  0  0  0  0  0  0
   -3.3705    0.0000    0.0000 C   0  0  0  0  0  0  0  0  0  0  0  0
   -4.6098   -0.8450    0.0000 C   0  0  0  0  0  0  0  0  0  0  0  0
   -4.6098    0.8450    0.0000 O   0  0  0  0  0  0  0  0  0  0  0  0
   -3.0367    1.4624    0.0000 C   0  0  0  0  0  0  0  0  0  0  0  0
   -2.1015    2.6351    0.0000 C   0  0  0  0  0  0  0  0  0  0  0  0
   -3.0367    3.8079    0.0000 C   0  0  0  0  0  0  0  0  0  0  0  0
   -0.7500    3.2860    0.0000 C   0  0  0  0  0  0  0  0  0  0  0  0
   -1.0838    4.7484    0.0000 N   0  0  0  0  0  0  0  0  0  0  0  0
   -2.5171    5.1905    0.0000 O   0  0  0  0  0  0  0  0  0  0  0  0
   -2.8509    6.6529    0.0000 C   0  0  0  0  0  0  0  0  0  0  0  0
   -4.2843    7.0950    0.0000 O   0  0  0  0  0  0  0  0  0  0  0  0
   -4.6181    8.5574    0.0000 C   0  0  0  0  0  0  0  0  0  0  0  0
   -6.0514    8.9995    0.0000 C   0  0  0  0  0  0  0  0  0  0  0  0
   -6.3852   10.4619    0.0000 O   0  0  0  0  0  0  0  0  0  0  0  0
   -7.8186   10.9041    0.0000 C   0  0  0  0  0  0  0  0  0  0  0  0
    0.7500    3.2860    0.0000 C   0  0  0  0  0  0  0  0  0  0  0  0
    1.0838    4.7484    0.0000 C   0  0  0  0  0  0  0  0  0  0  0  0
    2.1015    2.6351    0.0000 C   0  0  0  0  0  0  0  0  0  0  0  0
    3.0367    3.8079    0.0000 O   0  0  0  0  0  0  0  0  0  0  0  0
    3.0367    1.4624    0.0000 C   0  0  0  0  0  0  0  0  0  0  0  0
    3.7867    2.7614    0.0000 C   0  0  0  0  0  0  0  0  0  0  0  0
    4.5199    1.2388    0.0000 O   0  0  0  0  0  0  0  0  0  0  0  0
  1  2  1  0
  2  3  1  0
  3  4  1  0
  4  5  1  0
  5  6  2  0
  5  7  1  0
  7  8  1  0
  7  9  1  0
  9 10  1  0
 10 11  1  0
 11 12  1  0
 12 13  1  0
 13 14  1  0
 13 15  1  0
 15 16  1  0
 13 17  1  0
 17 18  1  0
 17 19  1  0
 19 20  1  0
 19 21  1  0
  9 22  1  0
 22 23  1  0
 22 24  1  0
 24 25  1  0
 25 26  1  0
 26 27  1  0
 27 28  1  0
 28 29  1  0
 28 30  1  0
 30 31  1  0
 31 32  1  0
 32 33  1  0
 32 34  1  0
 31 35  1  0
 35 36  1  0
 24 37  1  0
 37 38  1  0
 37 39  1  0
 37 40  1  0
 40 41  1  0
 41 42  1  0
 41 43  1  0
 43 44  2  0
 44 45  1  0
 45 46  1  0
 46 47  1  0
 47 48  1  0
 48 49  1  0
 49 50  1  0
 50 51  1  0
 43 52  1  0
 52 53  1  0
 52 54  1  0
 54 55  1  0
 54 56  1  0
 56 57  1  0
 56 58  1  0
 56  3  1  0
 21 11  1  0
 35 26  1  0
M  END
>  <ChEMBL_IDs>  (459) 
nan

>  <target_organism>  (459) 
nan

>  <target_molecule_pref_name>  (459) 
nan

>  <# Known Targets>  (459) 
nan

>  <Known Targets>  (459) 
nan

>  <smiles>  (459) 
CCC1OC(=O)C(C)C(OC2CC(C)(OC)C(O)C(C)O2)C(C)C(OC2OC(C)CC(N(C)C)C2O)C(C)(O)CC(C)/C(=N\OCOCCOC)C(C)C(O)C1(C)O

$$$$

     RDKit          2D

 58 60  0  0  0  0  0  0  0  0999 V2000
    5.6205   -1.2990    0.0000 C   0  0  0  0  0  0  0  0  0  0  0  0
    4.8705    0.0000    0.0000 C   0  0  0  0  0  0  0  0  0  0  0  0
    3.3705    0.0000    0.0000 C   0  0  0  0  0  0  0  0  0  0  0  0
    3.0367   -1.4624    0.0000 O   0  0  0  0  0  0  0  0  0  0  0  0
    2.1015   -2.6351    0.0000 C   0  0  0  0  0  0  0  0  0  0  0  0
    3.0367   -3.8079    0.0000 O   0  0  0  0  0  0  0  0  0  0  0  0
    0.7500   -3.2860    0.0000 C   0  0  0  0  0  0  0  0  0  0  0  0
    1.3600   -4.4903    0.0000 C   0  0  0  0  0  0  0  0  0  0  0  0
   -0.7500   -3.2860    0.0000 C   0  0  0  0  0  0  0  0  0  0  0  0
   -1.0838   -4.7484    0.0000 O   0  0  0  0  0  0  0  0  0  0  0  0
    0.0158   -5.7686    0.0000 C   0  0  0  0  0  0  0  0  0  0  0  0
   -0.3180   -7.2310    0.0000 C   0  0  0  0  0  0  0  0  0  0  0  0
    0.7816   -8.2513    0.0000 C   0  0  0  0  0  0  0  0  0  0  0  0
    1.4659   -9.5861    0.0000 C   0  0  0  0  0  0  0  0  0  0  0  0
   -0.4141   -9.1570    0.0000 O   0  0  0  0  0  0  0  0  0  0  0  0
   -0.2276  -10.6453    0.0000 C   0  0  0  0  0  0  0  0  0  0  0  0
    2.2150   -7.8091    0.0000 C   0  0  0  0  0  0  0  0  0  0  0  0
    3.3145   -8.8294    0.0000 O   0  0  0  0  0  0  0  0  0  0  0  0
    2.5487   -6.3467    0.0000 C   0  0  0  0  0  0  0  0  0  0  0  0
    3.9821   -5.9046    0.0000 C   0  0  0  0  0  0  0  0  0  0  0  0
    1.4492   -5.3265    0.0000 O   0  0  0  0  0  0  0  0  0  0  0  0
   -2.1015   -2.6351    0.0000 C   0  0  0  0  0  0  0  0  0  0  0  0
   -3.0367   -3.8079    0.0000 C   0  0  0  0  0  0  0  0  0  0  0  0
   -3.0367   -1.4624    0.0000 C   0  0  0  0  0  0  0  0  0  0  0  0
   -4.3881   -2.1132    0.0000 O   0  0  0  0  0  0  0  0  0  0  0  0
   -5.6275   -1.2682    0.0000 C   0  0  0  0  0  0  0  0  0  0  0  0
   -5.5154    0.2276    0.0000 O   0  0  0  0  0  0  0  0  0  0  0  0
   -6.7548    1.0725    0.0000 C   0  0  0  0  0  0  0  0  0  0  0  0
   -6.6427    2.5684    0.0000 C   0  0  0  0  0  0  0  0  0  0  0  0
   -8.1062    0.4217    0.0000 C   0  0  0  0  0  0  0  0  0  0  0  0
   -8.2183   -1.0741    0.0000 C   0  0  0  0  0  0  0  0  0  0  0  0
   -9.5698   -1.7249    0.0000 N   0  0  0  0  0  0  0  0  0  0  0  0
  -10.8091   -0.8799    0.0000 C   0  0  0  0  0  0  0  0  0  0  0  0
   -9.6819   -3.2207    0.0000 C   0  0  0  0  0  0  0  0  0  0  0  0
   -6.9790   -1.9191    0.0000 C   0  0  0  0  0  0  0  0  0  0  0  0
   -7.0910   -3.4149    0.0000 O   0  0  0  0  0  0  0  0  0  0  0  0
   -3.3705    0.0000    0.0000 C   0  0  0  0  0  0  0  0  0  0  0  0
   -4.6098   -0.8450    0.0000 C   0  0  0  0  0  0  0  0  0  0  0  0
   -4.6098    0.8450    0.0000 O   0  0  0  0  0  0  0  0  0  0  0  0
   -3.0367    1.4624    0.0000 C   0  0  0  0  0  0  0  0  0  0  0  0
   -2.1015    2.6351    0.0000 C   0  0  0  0  0  0  0  0  0  0  0  0
   -3.0367    3.8079    0.0000 C   0  0  0  0  0  0  0  0  0  0  0  0
   -0.7500    3.2860    0.0000 C   0  0  0  0  0  0  0  0  0  0  0  0
   -1.0838    4.7484    0.0000 N   0  0  0  0  0  0  0  0  0  0  0  0
   -2.5171    5.1905    0.0000 O   0  0  0  0  0  0  0  0  0  0  0  0
   -2.8509    6.6529    0.0000 C   0  0  0  0  0  0  0  0  0  0  0  0
   -4.2843    7.0950    0.0000 O   0  0  0  0  0  0  0  0  0  0  0  0
   -4.6181    8.5574    0.0000 C   0  0  0  0  0  0  0  0  0  0  0  0
   -6.0514    8.9995    0.0000 C   0  0  0  0  0  0  0  0  0  0  0  0
   -6.3852   10.4619    0.0000 O   0  0  0  0  0  0  0  0  0  0  0  0
   -7.8186   10.9041    0.0000 C   0  0  0  0  0  0  0  0  0  0  0  0
    0.7500    3.2860    0.0000 C   0  0  0  0  0  0  0  0  0  0  0  0
    1.0838    4.7484    0.0000 C   0  0  0  0  0  0  0  0  0  0  0  0
    2.1015    2.6351    0.0000 C   0  0  0  0  0  0  0  0  0  0  0  0
    3.0367    3.8079    0.0000 O   0  0  0  0  0  0  0  0  0  0  0  0
    3.0367    1.4624    0.0000 C   0  0  0  0  0  0  0  0  0  0  0  0
    3.7867    2.7614    0.0000 C   0  0  0  0  0  0  0  0  0  0  0  0
    4.5199    1.2388    0.0000 O   0  0  0  0  0  0  0  0  0  0  0  0
  1  2  1  0
  2  3  1  0
  3  4  1  0
  4  5  1  0
  5  6  2  0
  5  7  1  0
  7  8  1  0
  7  9  1  0
  9 10  1  0
 10 11  1  0
 11 12  1  0
 12 13  1  0
 13 14  1  0
 13 15  1  0
 15 16  1  0
 13 17  1  0
 17 18  1  0
 17 19  1  0
 19 20  1  0
 19 21  1  0
  9 22  1  0
 22 23  1  0
 22 24  1  0
 24 25  1  0
 25 26  1  0
 26 27  1  0
 27 28  1  0
 28 29  1  0
 28 30  1  0
 30 31  1  0
 31 32  1  0
 32 33  1  0
 32 34  1  0
 31 35  1  0
 35 36  1  0
 24 37  1  0
 37 38  1  0
 37 39  1  0
 37 40  1  0
 40 41  1  0
 41 42  1  0
 41 43  1  0
 43 44  2  0
 44 45  1  0
 45 46  1  0
 46 47  1  0
 47 48  1  0
 48 49  1  0
 49 50  1  0
 50 51  1  0
 43 52  1  0
 52 53  1  0
 52 54  1  0
 54 55  1  0
 54 56  1  0
 56 57  1  0
 56 58  1  0
 56  3  1  0
 21 11  1  0
 35 26  1  0
M  END
>  <ChEMBL_IDs>  (460) 
nan

>  <target_organism>  (460) 
nan

>  <target_molecule_pref_name>  (460) 
nan

>  <# Known Targets>  (460) 
nan

>  <Known Targets>  (460) 
nan

>  <smiles>  (460) 
CCC1OC(=O)C(C)C(OC2CC(C)(OC)C(O)C(C)O2)C(C)C(OC2OC(C)CC(N(C)C)C2O)C(C)(O)CC(C)/C(=N\OCOCCOC)C(C)C(O)C1(C)O

$$$$

     RDKit          2D

 58 60  0  0  0  0  0  0  0  0999 V2000
    5.6205   -1.2990    0.0000 C   0  0  0  0  0  0  0  0  0  0  0  0
    4.8705    0.0000    0.0000 C   0  0  0  0  0  0  0  0  0  0  0  0
    3.3705    0.0000    0.0000 C   0  0  0  0  0  0  0  0  0  0  0  0
    3.0367   -1.4624    0.0000 O   0  0  0  0  0  0  0  0  0  0  0  0
    2.1015   -2.6351    0.0000 C   0  0  0  0  0  0  0  0  0  0  0  0
    3.0367   -3.8079    0.0000 O   0  0  0  0  0  0  0  0  0  0  0  0
    0.7500   -3.2860    0.0000 C   0  0  0  0  0  0  0  0  0  0  0  0
    1.3600   -4.4903    0.0000 C   0  0  0  0  0  0  0  0  0  0  0  0
   -0.7500   -3.2860    0.0000 C   0  0  0  0  0  0  0  0  0  0  0  0
   -1.0838   -4.7484    0.0000 O   0  0  0  0  0  0  0  0  0  0  0  0
    0.0158   -5.7686    0.0000 C   0  0  0  0  0  0  0  0  0  0  0  0
   -0.3180   -7.2310    0.0000 C   0  0  0  0  0  0  0  0  0  0  0  0
    0.7816   -8.2513    0.0000 C   0  0  0  0  0  0  0  0  0  0  0  0
    1.4659   -9.5861    0.0000 C   0  0  0  0  0  0  0  0  0  0  0  0
   -0.4141   -9.1570    0.0000 O   0  0  0  0  0  0  0  0  0  0  0  0
   -0.2276  -10.6453    0.0000 C   0  0  0  0  0  0  0  0  0  0  0  0
    2.2150   -7.8091    0.0000 C   0  0  0  0  0  0  0  0  0  0  0  0
    3.3145   -8.8294    0.0000 O   0  0  0  0  0  0  0  0  0  0  0  0
    2.5487   -6.3467    0.0000 C   0  0  0  0  0  0  0  0  0  0  0  0
    3.9821   -5.9046    0.0000 C   0  0  0  0  0  0  0  0  0  0  0  0
    1.4492   -5.3265    0.0000 O   0  0  0  0  0  0  0  0  0  0  0  0
   -2.1015   -2.6351    0.0000 C   0  0  0  0  0  0  0  0  0  0  0  0
   -3.0367   -3.8079    0.0000 C   0  0  0  0  0  0  0  0  0  0  0  0
   -3.0367   -1.4624    0.0000 C   0  0  0  0  0  0  0  0  0  0  0  0
   -4.3881   -2.1132    0.0000 O   0  0  0  0  0  0  0  0  0  0  0  0
   -5.6275   -1.2682    0.0000 C   0  0  0  0  0  0  0  0  0  0  0  0
   -5.5154    0.2276    0.0000 O   0  0  0  0  0  0  0  0  0  0  0  0
   -6.7548    1.0725    0.0000 C   0  0  0  0  0  0  0  0  0  0  0  0
   -6.6427    2.5684    0.0000 C   0  0  0  0  0  0  0  0  0  0  0  0
   -8.1062    0.4217    0.0000 C   0  0  0  0  0  0  0  0  0  0  0  0
   -8.2183   -1.0741    0.0000 C   0  0  0  0  0  0  0  0  0  0  0  0
   -9.5698   -1.7249    0.0000 N   0  0  0  0  0  0  0  0  0  0  0  0
  -10.8091   -0.8799    0.0000 C   0  0  0  0  0  0  0  0  0  0  0  0
   -9.6819   -3.2207    0.0000 C   0  0  0  0  0  0  0  0  0  0  0  0
   -6.9790   -1.9191    0.0000 C   0  0  0  0  0  0  0  0  0  0  0  0
   -7.0910   -3.4149    0.0000 O   0  0  0  0  0  0  0  0  0  0  0  0
   -3.3705    0.0000    0.0000 C   0  0  0  0  0  0  0  0  0  0  0  0
   -4.6098   -0.8450    0.0000 C   0  0  0  0  0  0  0  0  0  0  0  0
   -4.6098    0.8450    0.0000 O   0  0  0  0  0  0  0  0  0  0  0  0
   -3.0367    1.4624    0.0000 C   0  0  0  0  0  0  0  0  0  0  0  0
   -2.1015    2.6351    0.0000 C   0  0  0  0  0  0  0  0  0  0  0  0
   -3.0367    3.8079    0.0000 C   0  0  0  0  0  0  0  0  0  0  0  0
   -0.7500    3.2860    0.0000 C   0  0  0  0  0  0  0  0  0  0  0  0
   -1.0838    4.7484    0.0000 N   0  0  0  0  0  0  0  0  0  0  0  0
   -2.5171    5.1905    0.0000 O   0  0  0  0  0  0  0  0  0  0  0  0
   -2.8509    6.6529    0.0000 C   0  0  0  0  0  0  0  0  0  0  0  0
   -4.2843    7.0950    0.0000 O   0  0  0  0  0  0  0  0  0  0  0  0
   -4.6181    8.5574    0.0000 C   0  0  0  0  0  0  0  0  0  0  0  0
   -6.0514    8.9995    0.0000 C   0  0  0  0  0  0  0  0  0  0  0  0
   -6.3852   10.4619    0.0000 O   0  0  0  0  0  0  0  0  0  0  0  0
   -7.8186   10.9041    0.0000 C   0  0  0  0  0  0  0  0  0  0  0  0
    0.7500    3.2860    0.0000 C   0  0  0  0  0  0  0  0  0  0  0  0
    1.0838    4.7484    0.0000 C   0  0  0  0  0  0  0  0  0  0  0  0
    2.1015    2.6351    0.0000 C   0  0  0  0  0  0  0  0  0  0  0  0
    3.0367    3.8079    0.0000 O   0  0  0  0  0  0  0  0  0  0  0  0
    3.0367    1.4624    0.0000 C   0  0  0  0  0  0  0  0  0  0  0  0
    3.7867    2.7614    0.0000 C   0  0  0  0  0  0  0  0  0  0  0  0
    4.5199    1.2388    0.0000 O   0  0  0  0  0  0  0  0  0  0  0  0
  1  2  1  0
  2  3  1  0
  3  4  1  0
  4  5  1  0
  5  6  2  0
  5  7  1  0
  7  8  1  0
  7  9  1  0
  9 10  1  1
 11 10  1  6
 11 12  1  0
 12 13  1  0
 13 14  1  1
 13 15  1  0
 15 16  1  0
 13 17  1  0
 17 18  1  0
 17 19  1  0
 19 20  1  0
 19 21  1  0
  9 22  1  0
 22 23  1  0
 22 24  1  0
 24 25  1  1
 26 25  1  1
 26 27  1  0
 27 28  1  0
 28 29  1  0
 28 30  1  0
 30 31  1  0
 31 32  1  0
 32 33  1  0
 32 34  1  0
 31 35  1  0
 35 36  1  0
 24 37  1  0
 37 38  1  1
 37 39  1  0
 37 40  1  0
 40 41  1  0
 41 42  1  0
 41 43  1  0
 43 44  2  0
 44 45  1  0
 45 46  1  0
 46 47  1  0
 47 48  1  0
 48 49  1  0
 49 50  1  0
 50 51  1  0
 43 52  1  0
 52 53  1  6
 52 54  1  0
 54 55  1  0
 54 56  1  0
 56 57  1  1
 56 58  1  0
 56  3  1  0
 21 11  1  0
 35 26  1  0
M  END
>  <ChEMBL_IDs>  (461) 
nan

>  <target_organism>  (461) 
nan

>  <target_molecule_pref_name>  (461) 
nan

>  <# Known Targets>  (461) 
nan

>  <Known Targets>  (461) 
nan

>  <smiles>  (461) 
CCC1OC(=O)C(C)[C@@H](O[C@H]2C[C@@](C)(OC)C(O)C(C)O2)C(C)[C@@H](O[C@@H]2OC(C)CC(N(C)C)C2O)[C@](C)(O)CC(C)/C(=N\OCOCCOC)[C@H](C)C(O)[C@]1(C)O

$$$$

     RDKit          2D

 58 60  0  0  0  0  0  0  0  0999 V2000
    5.6205   -1.2990    0.0000 C   0  0  0  0  0  0  0  0  0  0  0  0
    4.8705    0.0000    0.0000 C   0  0  0  0  0  0  0  0  0  0  0  0
    3.3705    0.0000    0.0000 C   0  0  0  0  0  0  0  0  0  0  0  0
    3.0367   -1.4624    0.0000 O   0  0  0  0  0  0  0  0  0  0  0  0
    2.1015   -2.6351    0.0000 C   0  0  0  0  0  0  0  0  0  0  0  0
    3.0367   -3.8079    0.0000 O   0  0  0  0  0  0  0  0  0  0  0  0
    0.7500   -3.2860    0.0000 C   0  0  0  0  0  0  0  0  0  0  0  0
    1.3600   -4.4903    0.0000 C   0  0  0  0  0  0  0  0  0  0  0  0
   -0.7500   -3.2860    0.0000 C   0  0  0  0  0  0  0  0  0  0  0  0
   -1.0838   -4.7484    0.0000 O   0  0  0  0  0  0  0  0  0  0  0  0
    0.0158   -5.7686    0.0000 C   0  0  0  0  0  0  0  0  0  0  0  0
   -0.3180   -7.2310    0.0000 C   0  0  0  0  0  0  0  0  0  0  0  0
    0.7816   -8.2513    0.0000 C   0  0  0  0  0  0  0  0  0  0  0  0
    1.4659   -9.5861    0.0000 C   0  0  0  0  0  0  0  0  0  0  0  0
   -0.4141   -9.1570    0.0000 O   0  0  0  0  0  0  0  0  0  0  0  0
   -0.2276  -10.6453    0.0000 C   0  0  0  0  0  0  0  0  0  0  0  0
    2.2150   -7.8091    0.0000 C   0  0  0  0  0  0  0  0  0  0  0  0
    3.3145   -8.8294    0.0000 O   0  0  0  0  0  0  0  0  0  0  0  0
    2.5487   -6.3467    0.0000 C   0  0  0  0  0  0  0  0  0  0  0  0
    3.9821   -5.9046    0.0000 C   0  0  0  0  0  0  0  0  0  0  0  0
    1.4492   -5.3265    0.0000 O   0  0  0  0  0  0  0  0  0  0  0  0
   -2.1015   -2.6351    0.0000 C   0  0  0  0  0  0  0  0  0  0  0  0
   -3.0367   -3.8079    0.0000 C   0  0  0  0  0  0  0  0  0  0  0  0
   -3.0367   -1.4624    0.0000 C   0  0  0  0  0  0  0  0  0  0  0  0
   -4.3881   -2.1132    0.0000 O   0  0  0  0  0  0  0  0  0  0  0  0
   -5.6275   -1.2682    0.0000 C   0  0  0  0  0  0  0  0  0  0  0  0
   -5.5154    0.2276    0.0000 O   0  0  0  0  0  0  0  0  0  0  0  0
   -6.7548    1.0725    0.0000 C   0  0  0  0  0  0  0  0  0  0  0  0
   -6.6427    2.5684    0.0000 C   0  0  0  0  0  0  0  0  0  0  0  0
   -8.1062    0.4217    0.0000 C   0  0  0  0  0  0  0  0  0  0  0  0
   -8.2183   -1.0741    0.0000 C   0  0  0  0  0  0  0  0  0  0  0  0
   -9.5698   -1.7249    0.0000 N   0  0  0  0  0  0  0  0  0  0  0  0
  -10.8091   -0.8799    0.0000 C   0  0  0  0  0  0  0  0  0  0  0  0
   -9.6819   -3.2207    0.0000 C   0  0  0  0  0  0  0  0  0  0  0  0
   -6.9790   -1.9191    0.0000 C   0  0  0  0  0  0  0  0  0  0  0  0
   -7.0910   -3.4149    0.0000 O   0  0  0  0  0  0  0  0  0  0  0  0
   -3.3705    0.0000    0.0000 C   0  0  0  0  0  0  0  0  0  0  0  0
   -4.6098   -0.8450    0.0000 C   0  0  0  0  0  0  0  0  0  0  0  0
   -4.6098    0.8450    0.0000 O   0  0  0  0  0  0  0  0  0  0  0  0
   -3.0367    1.4624    0.0000 C   0  0  0  0  0  0  0  0  0  0  0  0
   -2.1015    2.6351    0.0000 C   0  0  0  0  0  0  0  0  0  0  0  0
   -3.0367    3.8079    0.0000 C   0  0  0  0  0  0  0  0  0  0  0  0
   -0.7500    3.2860    0.0000 C   0  0  0  0  0  0  0  0  0  0  0  0
   -1.0838    4.7484    0.0000 N   0  0  0  0  0  0  0  0  0  0  0  0
    0.0158    5.7686    0.0000 O   0  0  0  0  0  0  0  0  0  0  0  0
   -0.3180    7.2310    0.0000 C   0  0  0  0  0  0  0  0  0  0  0  0
    0.7816    8.2513    0.0000 O   0  0  0  0  0  0  0  0  0  0  0  0
    0.4478    9.7137    0.0000 C   0  0  0  0  0  0  0  0  0  0  0  0
    1.5474   10.7339    0.0000 C   0  0  0  0  0  0  0  0  0  0  0  0
    1.2136   12.1963    0.0000 O   0  0  0  0  0  0  0  0  0  0  0  0
    2.3132   13.2166    0.0000 C   0  0  0  0  0  0  0  0  0  0  0  0
    0.7500    3.2860    0.0000 C   0  0  0  0  0  0  0  0  0  0  0  0
    1.0838    4.7484    0.0000 C   0  0  0  0  0  0  0  0  0  0  0  0
    2.1015    2.6351    0.0000 C   0  0  0  0  0  0  0  0  0  0  0  0
    3.0367    3.8079    0.0000 O   0  0  0  0  0  0  0  0  0  0  0  0
    3.0367    1.4624    0.0000 C   0  0  0  0  0  0  0  0  0  0  0  0
    3.7867    2.7614    0.0000 C   0  0  0  0  0  0  0  0  0  0  0  0
    4.5199    1.2388    0.0000 O   0  0  0  0  0  0  0  0  0  0  0  0
  1  2  1  0
  3  2  1  1
  3  4  1  0
  4  5  1  0
  5  6  2  0
  5  7  1  0
  7  8  1  6
  7  9  1  0
  9 10  1  1
 11 10  1  6
 11 12  1  0
 12 13  1  0
 13 14  1  1
 13 15  1  0
 15 16  1  0
 13 17  1  0
 17 18  1  6
 17 19  1  0
 19 20  1  1
 19 21  1  0
  9 22  1  0
 22 23  1  6
 22 24  1  0
 24 25  1  1
 26 25  1  1
 26 27  1  0
 27 28  1  0
 28 29  1  1
 28 30  1  0
 30 31  1  0
 31 32  1  1
 32 33  1  0
 32 34  1  0
 31 35  1  0
 35 36  1  6
 24 37  1  0
 37 38  1  1
 37 39  1  0
 37 40  1  0
 40 41  1  0
 41 42  1  6
 41 43  1  0
 43 44  2  3
 44 45  1  0
 45 46  1  0
 46 47  1  0
 47 48  1  0
 48 49  1  0
 49 50  1  0
 50 51  1  0
 43 52  1  0
 52 53  1  6
 52 54  1  0
 54 55  1  1
 54 56  1  0
 56 57  1  1
 56 58  1  0
 56  3  1  0
 21 11  1  0
 35 26  1  0
M  END
>  <ChEMBL_IDs>  (462) 
CHEMBL3348852

>  <target_organism>  (462) 
Hepatitis C virus,None

>  <target_molecule_pref_name>  (462) 
nan

>  <# Known Targets>  (462) 
nan

>  <Known Targets>  (462) 
nan

>  <smiles>  (462) 
CC[C@H]1OC(=O)[C@H](C)[C@@H](O[C@H]2C[C@@](C)(OC)[C@@H](O)[C@H](C)O2)[C@H](C)[C@@H](O[C@@H]2O[C@H](C)C[C@H](N(C)C)[C@H]2O)[C@](C)(O)C[C@H](C)C(=NOCOCCOC)[C@H](C)[C@@H](O)[C@]1(C)O

$$$$

     RDKit          2D

 55 57  0  0  0  0  0  0  0  0999 V2000
    6.5684   11.5475    0.0000 C   0  0  0  0  0  0  0  0  0  0  0  0
    6.9313   10.0921    0.0000 C   0  0  0  0  0  0  0  0  0  0  0  0
    5.8523    9.0501    0.0000 C   0  0  0  0  0  0  0  0  0  0  0  0
    6.2151    7.5947    0.0000 C   0  0  0  0  0  0  0  0  0  0  0  0
    5.1361    6.5527    0.0000 C   0  0  0  0  0  0  0  0  0  0  0  0
    4.2973    7.7962    0.0000 O   0  0  0  0  0  0  0  0  0  0  0  0
    3.7658    5.9426    0.0000 C   0  0  0  0  0  0  0  0  0  0  0  0
    2.5523    6.8242    0.0000 C   0  0  0  0  0  0  0  0  0  0  0  0
    3.6090    4.4508    0.0000 O   0  0  0  0  0  0  0  0  0  0  0  0
    4.8225    3.5691    0.0000 C   0  0  0  0  0  0  0  0  0  0  0  0
    4.6658    2.0773    0.0000 O   0  0  0  0  0  0  0  0  0  0  0  0
    3.2954    1.4672    0.0000 C   0  0  0  0  0  0  0  0  0  0  0  0
    3.6073    0.0000    0.0000 C   0  0  0  0  0  0  0  0  0  0  0  0
    5.1073    0.0000    0.0000 C   0  0  0  0  0  0  0  0  0  0  0  0
    3.2954   -1.4672    0.0000 C   0  0  0  0  0  0  0  0  0  0  0  0
    4.6658   -2.0773    0.0000 O   0  0  0  0  0  0  0  0  0  0  0  0
    4.8225   -3.5691    0.0000 C   0  0  0  0  0  0  0  0  0  0  0  0
    3.6090   -4.4508    0.0000 O   0  0  0  0  0  0  0  0  0  0  0  0
    3.7658   -5.9426    0.0000 C   0  0  0  0  0  0  0  0  0  0  0  0
    2.5523   -6.8242    0.0000 C   0  0  0  0  0  0  0  0  0  0  0  0
    5.1361   -6.5527    0.0000 C   0  0  0  0  0  0  0  0  0  0  0  0
    6.3497   -5.6710    0.0000 C   0  0  0  0  0  0  0  0  0  0  0  0
    7.7200   -6.2811    0.0000 N   0  0  0  0  0  0  0  0  0  0  0  0
    7.8768   -7.7729    0.0000 C   0  0  0  0  0  0  0  0  0  0  0  0
    8.9335   -5.3994    0.0000 C   0  0  0  0  0  0  0  0  0  0  0  0
    6.1929   -4.1792    0.0000 C   0  0  0  0  0  0  0  0  0  0  0  0
    7.4064   -3.2975    0.0000 O   0  0  0  0  0  0  0  0  0  0  0  0
    2.4138   -2.6807    0.0000 C   0  0  0  0  0  0  0  0  0  0  0  0
    3.8692   -3.0436    0.0000 C   0  0  0  0  0  0  0  0  0  0  0  0
    2.6225   -4.1661    0.0000 O   0  0  0  0  0  0  0  0  0  0  0  0
    1.1147   -3.4307    0.0000 C   0  0  0  0  0  0  0  0  0  0  0  0
   -0.3771   -3.5875    0.0000 C   0  0  0  0  0  0  0  0  0  0  0  0
   -0.5339   -5.0793    0.0000 C   0  0  0  0  0  0  0  0  0  0  0  0
   -1.8037   -3.1240    0.0000 C   0  0  0  0  0  0  0  0  0  0  0  0
   -2.9184   -2.1203    0.0000 N   0  0  0  0  0  0  0  0  0  0  0  0
   -3.5285   -0.7500    0.0000 C   0  0  0  0  0  0  0  0  0  0  0  0
   -4.9957   -1.0619    0.0000 C   0  0  0  0  0  0  0  0  0  0  0  0
   -3.5285    0.7500    0.0000 C   0  0  0  0  0  0  0  0  0  0  0  0
   -4.9957    1.0619    0.0000 O   0  0  0  0  0  0  0  0  0  0  0  0
   -2.9184    2.1203    0.0000 C   0  0  0  0  0  0  0  0  0  0  0  0
   -4.4175    2.1727    0.0000 C   0  0  0  0  0  0  0  0  0  0  0  0
   -3.4314    3.5299    0.0000 O   0  0  0  0  0  0  0  0  0  0  0  0
   -1.8037    3.1240    0.0000 C   0  0  0  0  0  0  0  0  0  0  0  0
   -2.5537    4.4231    0.0000 C   0  0  0  0  0  0  0  0  0  0  0  0
   -1.8037    5.7221    0.0000 C   0  0  0  0  0  0  0  0  0  0  0  0
   -0.3771    3.5875    0.0000 O   0  0  0  0  0  0  0  0  0  0  0  0
    1.1147    3.4307    0.0000 C   0  0  0  0  0  0  0  0  0  0  0  0
    1.5782    4.8573    0.0000 O   0  0  0  0  0  0  0  0  0  0  0  0
    2.4138    2.6807    0.0000 C   0  0  0  0  0  0  0  0  0  0  0  0
    3.0475    3.8728    0.0000 C   0  0  0  0  0  0  0  0  0  0  0  0
    6.1929    4.1792    0.0000 C   0  0  0  0  0  0  0  0  0  0  0  0
    6.3497    5.6710    0.0000 C   0  0  0  0  0  0  0  0  0  0  0  0
    7.7915    5.2575    0.0000 C   0  0  0  0  0  0  0  0  0  0  0  0
    7.0072    7.0192    0.0000 O   0  0  0  0  0  0  0  0  0  0  0  0
    8.5036    7.1238    0.0000 C   0  0  0  0  0  0  0  0  0  0  0  0
  1  2  1  0
  2  3  1  0
  3  4  1  0
  4  5  1  0
  5  6  1  1
  5  7  1  0
  7  8  1  1
  7  9  1  0
  9 10  1  0
 10 11  1  6
 12 11  1  1
 12 13  1  0
 13 14  1  6
 13 15  1  0
 15 16  1  1
 17 16  1  1
 17 18  1  0
 18 19  1  0
 19 20  1  1
 19 21  1  0
 21 22  1  0
 22 23  1  1
 23 24  1  0
 23 25  1  0
 22 26  1  0
 26 27  1  6
 15 28  1  0
 28 29  1  1
 28 30  1  0
 28 31  1  0
 31 32  1  0
 32 33  1  1
 32 34  1  0
 34 35  1  0
 35 36  1  0
 36 37  1  6
 36 38  1  0
 38 39  1  1
 38 40  1  0
 40 41  1  1
 40 42  1  0
 40 43  1  0
 43 44  1  1
 44 45  1  0
 43 46  1  0
 46 47  1  0
 47 48  2  0
 47 49  1  0
 49 50  1  6
 10 51  1  0
 51 52  1  0
 52 53  1  1
 52 54  1  0
 54 55  1  0
 52  5  1  0
 49 12  1  0
 26 17  1  0
M  END
>  <ChEMBL_IDs>  (463) 
CHEMBL300372

>  <target_organism>  (463) 
None

>  <target_molecule_pref_name>  (463) 
nan

>  <# Known Targets>  (463) 
nan

>  <Known Targets>  (463) 
nan

>  <smiles>  (463) 
CCCC[C@@]1(O)[C@H](C)O[C@@H](O[C@H]2[C@H](C)[C@@H](O[C@@H]3O[C@H](C)C[C@H](N(C)C)[C@H]3O)[C@](C)(O)C[C@@H](C)CN[C@H](C)[C@@H](O)[C@](C)(O)[C@@H](CC)OC(=O)[C@@H]2C)C[C@@]1(C)OC

$$$$

     RDKit          2D

 55 57  0  0  0  0  0  0  0  0999 V2000
    9.3705   -2.5981    0.0000 C   0  0  0  0  0  0  0  0  0  0  0  0
    7.8705   -2.5981    0.0000 C   0  0  0  0  0  0  0  0  0  0  0  0
    7.1205   -1.2990    0.0000 C   0  0  0  0  0  0  0  0  0  0  0  0
    5.6205   -1.2990    0.0000 C   0  0  0  0  0  0  0  0  0  0  0  0
    4.8705    0.0000    0.0000 N   0  0  0  0  0  0  0  0  0  0  0  0
    3.3705    0.0000    0.0000 C   0  0  0  0  0  0  0  0  0  0  0  0
    3.0367   -1.4624    0.0000 C   0  0  0  0  0  0  0  0  0  0  0  0
    4.3881   -2.1132    0.0000 C   0  0  0  0  0  0  0  0  0  0  0  0
    2.1015   -2.6351    0.0000 C   0  0  0  0  0  0  0  0  0  0  0  0
    3.0367   -3.8079    0.0000 O   0  0  0  0  0  0  0  0  0  0  0  0
    0.7500   -3.2860    0.0000 C   0  0  0  0  0  0  0  0  0  0  0  0
    1.8496   -4.3062    0.0000 C   0  0  0  0  0  0  0  0  0  0  0  0
    0.2020   -4.6823    0.0000 O   0  0  0  0  0  0  0  0  0  0  0  0
   -0.7500   -3.2860    0.0000 C   0  0  0  0  0  0  0  0  0  0  0  0
   -1.0838   -4.7484    0.0000 C   0  0  0  0  0  0  0  0  0  0  0  0
   -2.5171   -5.1905    0.0000 C   0  0  0  0  0  0  0  0  0  0  0  0
   -2.1015   -2.6351    0.0000 O   0  0  0  0  0  0  0  0  0  0  0  0
   -3.0367   -1.4624    0.0000 C   0  0  0  0  0  0  0  0  0  0  0  0
   -4.3881   -2.1132    0.0000 O   0  0  0  0  0  0  0  0  0  0  0  0
   -3.3705    0.0000    0.0000 C   0  0  0  0  0  0  0  0  0  0  0  0
   -4.6804   -0.3267    0.0000 C   0  0  0  0  0  0  0  0  0  0  0  0
   -3.0367    1.4624    0.0000 C   0  0  0  0  0  0  0  0  0  0  0  0
   -4.3881    2.1132    0.0000 O   0  0  0  0  0  0  0  0  0  0  0  0
   -5.6275    1.2682    0.0000 C   0  0  0  0  0  0  0  0  0  0  0  0
   -6.9790    1.9191    0.0000 C   0  0  0  0  0  0  0  0  0  0  0  0
   -8.2183    1.0741    0.0000 C   0  0  0  0  0  0  0  0  0  0  0  0
   -9.6719    0.7039    0.0000 C   0  0  0  0  0  0  0  0  0  0  0  0
   -8.8352    2.4413    0.0000 O   0  0  0  0  0  0  0  0  0  0  0  0
  -10.3278    2.5907    0.0000 C   0  0  0  0  0  0  0  0  0  0  0  0
   -8.1062   -0.4217    0.0000 C   0  0  0  0  0  0  0  0  0  0  0  0
   -9.3456   -1.2667    0.0000 O   0  0  0  0  0  0  0  0  0  0  0  0
   -6.7548   -1.0725    0.0000 C   0  0  0  0  0  0  0  0  0  0  0  0
   -6.6427   -2.5684    0.0000 C   0  0  0  0  0  0  0  0  0  0  0  0
   -5.5154   -0.2276    0.0000 O   0  0  0  0  0  0  0  0  0  0  0  0
   -2.1015    2.6351    0.0000 C   0  0  0  0  0  0  0  0  0  0  0  0
   -3.0367    3.8079    0.0000 C   0  0  0  0  0  0  0  0  0  0  0  0
   -0.7500    3.2860    0.0000 C   0  0  0  0  0  0  0  0  0  0  0  0
   -1.0838    4.7484    0.0000 O   0  0  0  0  0  0  0  0  0  0  0  0
    0.0158    5.7686    0.0000 C   0  0  0  0  0  0  0  0  0  0  0  0
    1.4492    5.3265    0.0000 O   0  0  0  0  0  0  0  0  0  0  0  0
    2.5487    6.3467    0.0000 C   0  0  0  0  0  0  0  0  0  0  0  0
    3.9821    5.9046    0.0000 C   0  0  0  0  0  0  0  0  0  0  0  0
    2.2150    7.8091    0.0000 C   0  0  0  0  0  0  0  0  0  0  0  0
    0.7816    8.2513    0.0000 C   0  0  0  0  0  0  0  0  0  0  0  0
    0.4478    9.7137    0.0000 N   0  0  0  0  0  0  0  0  0  0  0  0
    1.5474   10.7339    0.0000 C   0  0  0  0  0  0  0  0  0  0  0  0
   -0.9855   10.1558    0.0000 C   0  0  0  0  0  0  0  0  0  0  0  0
   -0.3180    7.2310    0.0000 C   0  0  0  0  0  0  0  0  0  0  0  0
   -1.7513    7.6731    0.0000 O   0  0  0  0  0  0  0  0  0  0  0  0
    0.7500    3.2860    0.0000 C   0  0  0  0  0  0  0  0  0  0  0  0
    0.2020    4.6823    0.0000 C   0  0  0  0  0  0  0  0  0  0  0  0
    1.8496    4.3062    0.0000 O   0  0  0  0  0  0  0  0  0  0  0  0
    2.1015    2.6351    0.0000 C   0  0  0  0  0  0  0  0  0  0  0  0
    3.0367    1.4624    0.0000 C   0  0  0  0  0  0  0  0  0  0  0  0
    4.3881    2.1132    0.0000 C   0  0  0  0  0  0  0  0  0  0  0  0
  1  2  1  0
  2  3  1  0
  3  4  1  0
  4  5  1  0
  6  5  1  6
  6  7  1  0
  7  8  1  6
  7  9  1  0
  9 10  1  1
  9 11  1  0
 11 12  1  1
 11 13  1  0
 11 14  1  0
 14 15  1  1
 15 16  1  0
 14 17  1  0
 17 18  1  0
 18 19  2  0
 18 20  1  0
 20 21  1  6
 20 22  1  0
 22 23  1  1
 23 24  1  0
 24 25  1  0
 25 26  1  0
 26 27  1  0
 26 28  1  0
 28 29  1  0
 26 30  1  0
 30 31  1  0
 30 32  1  0
 32 33  1  0
 32 34  1  0
 22 35  1  0
 35 36  1  6
 35 37  1  0
 37 38  1  1
 38 39  1  0
 39 40  1  0
 40 41  1  0
 41 42  1  0
 41 43  1  0
 43 44  1  0
 44 45  1  0
 45 46  1  0
 45 47  1  0
 44 48  1  0
 48 49  1  0
 37 50  1  0
 50 51  1  1
 50 52  1  0
 50 53  1  0
 53 54  1  0
 54 55  1  1
 54  6  1  0
 34 24  1  0
 48 39  1  0
M  END
>  <ChEMBL_IDs>  (464) 
CHEMBL322586

>  <target_organism>  (464) 
None

>  <target_molecule_pref_name>  (464) 
nan

>  <# Known Targets>  (464) 
nan

>  <Known Targets>  (464) 
nan

>  <smiles>  (464) 
CCCCN[C@@H]1[C@H](C)[C@@H](O)[C@](C)(O)[C@@H](CC)OC(=O)[C@H](C)[C@@H](OC2CC(C)(OC)C(O)C(C)O2)[C@H](C)[C@@H](OC2OC(C)CC(N(C)C)C2O)[C@](C)(O)C[C@H]1C

$$$$

     RDKit          2D

 55 57  0  0  0  0  0  0  0  0999 V2000
    5.6205   -1.2990    0.0000 C   0  0  0  0  0  0  0  0  0  0  0  0
    4.8705    0.0000    0.0000 C   0  0  0  0  0  0  0  0  0  0  0  0
    3.3705    0.0000    0.0000 C   0  0  0  0  0  0  0  0  0  0  0  0
    3.0367   -1.4624    0.0000 O   0  0  0  0  0  0  0  0  0  0  0  0
    2.1015   -2.6351    0.0000 C   0  0  0  0  0  0  0  0  0  0  0  0
    3.0367   -3.8079    0.0000 O   0  0  0  0  0  0  0  0  0  0  0  0
    0.7500   -3.2860    0.0000 C   0  0  0  0  0  0  0  0  0  0  0  0
    1.3600   -4.4903    0.0000 C   0  0  0  0  0  0  0  0  0  0  0  0
   -0.7500   -3.2860    0.0000 C   0  0  0  0  0  0  0  0  0  0  0  0
   -1.0838   -4.7484    0.0000 O   0  0  0  0  0  0  0  0  0  0  0  0
    0.0158   -5.7686    0.0000 C   0  0  0  0  0  0  0  0  0  0  0  0
   -0.3180   -7.2310    0.0000 C   0  0  0  0  0  0  0  0  0  0  0  0
    0.7816   -8.2513    0.0000 C   0  0  0  0  0  0  0  0  0  0  0  0
    1.4659   -9.5861    0.0000 C   0  0  0  0  0  0  0  0  0  0  0  0
   -0.4141   -9.1570    0.0000 O   0  0  0  0  0  0  0  0  0  0  0  0
   -0.2276  -10.6453    0.0000 C   0  0  0  0  0  0  0  0  0  0  0  0
    2.2150   -7.8091    0.0000 C   0  0  0  0  0  0  0  0  0  0  0  0
    3.3145   -8.8294    0.0000 O   0  0  0  0  0  0  0  0  0  0  0  0
    2.5487   -6.3467    0.0000 C   0  0  0  0  0  0  0  0  0  0  0  0
    3.9821   -5.9046    0.0000 C   0  0  0  0  0  0  0  0  0  0  0  0
    1.4492   -5.3265    0.0000 O   0  0  0  0  0  0  0  0  0  0  0  0
   -2.1015   -2.6351    0.0000 C   0  0  0  0  0  0  0  0  0  0  0  0
   -3.0367   -3.8079    0.0000 C   0  0  0  0  0  0  0  0  0  0  0  0
   -3.0367   -1.4624    0.0000 C   0  0  0  0  0  0  0  0  0  0  0  0
   -4.3881   -2.1132    0.0000 O   0  0  0  0  0  0  0  0  0  0  0  0
   -5.6275   -1.2682    0.0000 C   0  0  0  0  0  0  0  0  0  0  0  0
   -5.5154    0.2276    0.0000 O   0  0  0  0  0  0  0  0  0  0  0  0
   -6.7548    1.0725    0.0000 C   0  0  0  0  0  0  0  0  0  0  0  0
   -6.6427    2.5684    0.0000 C   0  0  0  0  0  0  0  0  0  0  0  0
   -8.1062    0.4217    0.0000 C   0  0  0  0  0  0  0  0  0  0  0  0
   -8.2183   -1.0741    0.0000 C   0  0  0  0  0  0  0  0  0  0  0  0
   -9.5698   -1.7249    0.0000 N   0  0  0  0  0  0  0  0  0  0  0  0
  -10.8091   -0.8799    0.0000 C   0  0  0  0  0  0  0  0  0  0  0  0
   -9.6819   -3.2207    0.0000 C   0  0  0  0  0  0  0  0  0  0  0  0
   -6.9790   -1.9191    0.0000 C   0  0  0  0  0  0  0  0  0  0  0  0
   -7.0910   -3.4149    0.0000 O   0  0  0  0  0  0  0  0  0  0  0  0
   -3.3705    0.0000    0.0000 C   0  0  0  0  0  0  0  0  0  0  0  0
   -4.6098   -0.8450    0.0000 C   0  0  0  0  0  0  0  0  0  0  0  0
   -4.6098    0.8450    0.0000 O   0  0  0  0  0  0  0  0  0  0  0  0
   -3.0367    1.4624    0.0000 C   0  0  0  0  0  0  0  0  0  0  0  0
   -2.1015    2.6351    0.0000 C   0  0  0  0  0  0  0  0  0  0  0  0
   -3.1727    3.6851    0.0000 C   0  0  0  0  0  0  0  0  0  0  0  0
   -0.7500    3.2860    0.0000 C   0  0  0  0  0  0  0  0  0  0  0  0
   -1.0838    4.7484    0.0000 N   0  0  0  0  0  0  0  0  0  0  0  0
    0.0158    5.7686    0.0000 C   0  0  0  0  0  0  0  0  0  0  0  0
   -2.5171    5.1905    0.0000 C   0  0  0  0  0  0  0  0  0  0  0  0
   -2.8509    6.6529    0.0000 C   0  0  0  0  0  0  0  0  0  0  0  0
   -3.7329    4.3119    0.0000 C   0  0  0  0  0  0  0  0  0  0  0  0
    0.7500    3.2860    0.0000 C   0  0  0  0  0  0  0  0  0  0  0  0
    1.0838    4.7484    0.0000 C   0  0  0  0  0  0  0  0  0  0  0  0
    2.1015    2.6351    0.0000 C   0  0  0  0  0  0  0  0  0  0  0  0
    3.0367    3.8079    0.0000 O   0  0  0  0  0  0  0  0  0  0  0  0
    3.0367    1.4624    0.0000 C   0  0  0  0  0  0  0  0  0  0  0  0
    3.7867    2.7614    0.0000 C   0  0  0  0  0  0  0  0  0  0  0  0
    4.5199    1.2388    0.0000 O   0  0  0  0  0  0  0  0  0  0  0  0
  1  2  1  0
  3  2  1  1
  3  4  1  0
  4  5  1  0
  5  6  2  0
  5  7  1  0
  7  8  1  6
  7  9  1  0
  9 10  1  1
 10 11  1  0
 11 12  1  0
 12 13  1  0
 13 14  1  0
 13 15  1  0
 15 16  1  0
 13 17  1  0
 17 18  1  0
 17 19  1  0
 19 20  1  0
 19 21  1  0
  9 22  1  0
 22 23  1  6
 22 24  1  0
 24 25  1  1
 25 26  1  0
 26 27  1  0
 27 28  1  0
 28 29  1  0
 28 30  1  0
 30 31  1  0
 31 32  1  0
 32 33  1  0
 32 34  1  0
 31 35  1  0
 35 36  1  0
 24 37  1  0
 37 38  1  1
 37 39  1  0
 37 40  1  0
 40 41  1  0
 41 42  1  1
 41 43  1  0
 43 44  1  6
 44 45  1  0
 44 46  1  0
 46 47  1  0
 46 48  1  0
 43 49  1  0
 49 50  1  6
 49 51  1  0
 51 52  1  1
 51 53  1  0
 53 54  1  1
 53 55  1  0
 53  3  1  0
 21 11  1  0
 35 26  1  0
M  END
>  <ChEMBL_IDs>  (465) 
CHEMBL317222

>  <target_organism>  (465) 
None

>  <target_molecule_pref_name>  (465) 
nan

>  <# Known Targets>  (465) 
nan

>  <Known Targets>  (465) 
nan

>  <smiles>  (465) 
CC[C@H]1OC(=O)[C@H](C)[C@@H](OC2CC(C)(OC)C(O)C(C)O2)[C@H](C)[C@@H](OC2OC(C)CC(N(C)C)C2O)[C@](C)(O)C[C@@H](C)[C@H](N(C)C(C)C)[C@H](C)[C@@H](O)[C@]1(C)O

$$$$

     RDKit          2D

 55 57  0  0  0  0  0  0  0  0999 V2000
    5.8573   -1.2990    0.0000 C   0  0  0  0  0  0  0  0  0  0  0  0
    5.1073    0.0000    0.0000 C   0  0  0  0  0  0  0  0  0  0  0  0
    3.6073    0.0000    0.0000 C   0  0  0  0  0  0  0  0  0  0  0  0
    3.2954    1.4672    0.0000 O   0  0  0  0  0  0  0  0  0  0  0  0
    2.4138    2.6807    0.0000 C   0  0  0  0  0  0  0  0  0  0  0  0
    3.4175    3.7955    0.0000 O   0  0  0  0  0  0  0  0  0  0  0  0
    1.1147    3.4307    0.0000 C   0  0  0  0  0  0  0  0  0  0  0  0
    1.8302    4.5756    0.0000 C   0  0  0  0  0  0  0  0  0  0  0  0
   -0.3771    3.5875    0.0000 C   0  0  0  0  0  0  0  0  0  0  0  0
   -0.5339    5.0793    0.0000 O   0  0  0  0  0  0  0  0  0  0  0  0
    0.6797    5.9610    0.0000 C   0  0  0  0  0  0  0  0  0  0  0  0
    0.5229    7.4528    0.0000 C   0  0  0  0  0  0  0  0  0  0  0  0
    1.7364    8.3345    0.0000 C   0  0  0  0  0  0  0  0  0  0  0  0
    2.5752    9.5780    0.0000 C   0  0  0  0  0  0  0  0  0  0  0  0
    0.6574    9.3764    0.0000 O   0  0  0  0  0  0  0  0  0  0  0  0
    1.0203   10.8319    0.0000 C   0  0  0  0  0  0  0  0  0  0  0  0
    3.1067    7.7244    0.0000 C   0  0  0  0  0  0  0  0  0  0  0  0
    4.3202    8.6060    0.0000 O   0  0  0  0  0  0  0  0  0  0  0  0
    5.6906    7.9959    0.0000 C   0  0  0  0  0  0  0  0  0  0  0  0
    3.2635    6.2326    0.0000 C   0  0  0  0  0  0  0  0  0  0  0  0
    4.6338    5.6225    0.0000 C   0  0  0  0  0  0  0  0  0  0  0  0
    2.0500    5.3509    0.0000 O   0  0  0  0  0  0  0  0  0  0  0  0
   -1.8037    3.1240    0.0000 C   0  0  0  0  0  0  0  0  0  0  0  0
   -2.5537    4.4231    0.0000 C   0  0  0  0  0  0  0  0  0  0  0  0
   -2.9184    2.1203    0.0000 C   0  0  0  0  0  0  0  0  0  0  0  0
   -4.1319    3.0020    0.0000 O   0  0  0  0  0  0  0  0  0  0  0  0
   -5.5022    2.3919    0.0000 C   0  0  0  0  0  0  0  0  0  0  0  0
   -6.7157    3.2736    0.0000 O   0  0  0  0  0  0  0  0  0  0  0  0
   -8.0861    2.6635    0.0000 C   0  0  0  0  0  0  0  0  0  0  0  0
   -9.2996    3.5451    0.0000 C   0  0  0  0  0  0  0  0  0  0  0  0
   -8.2428    1.1717    0.0000 C   0  0  0  0  0  0  0  0  0  0  0  0
   -7.0293    0.2900    0.0000 C   0  0  0  0  0  0  0  0  0  0  0  0
   -7.1861   -1.2018    0.0000 N   0  0  0  0  0  0  0  0  0  0  0  0
   -8.5564   -1.8119    0.0000 C   0  0  0  0  0  0  0  0  0  0  0  0
   -5.9726   -2.0835    0.0000 C   0  0  0  0  0  0  0  0  0  0  0  0
   -5.6590    0.9001    0.0000 C   0  0  0  0  0  0  0  0  0  0  0  0
   -5.0760    0.3564    0.0000 O   0  0  0  0  0  0  0  0  0  0  0  0
   -3.5285    0.7500    0.0000 C   0  0  0  0  0  0  0  0  0  0  0  0
   -4.2257    0.3635    0.0000 C   0  0  0  0  0  0  0  0  0  0  0  0
   -4.5705    1.8290    0.0000 O   0  0  0  0  0  0  0  0  0  0  0  0
   -3.5285   -0.7500    0.0000 C   0  0  0  0  0  0  0  0  0  0  0  0
   -2.9184   -2.1203    0.0000 C   0  0  0  0  0  0  0  0  0  0  0  0
   -4.1319   -3.0020    0.0000 C   0  0  0  0  0  0  0  0  0  0  0  0
   -1.8037   -3.1240    0.0000 N   0  0  0  0  0  0  0  0  0  0  0  0
   -2.5537   -4.4231    0.0000 C   0  0  0  0  0  0  0  0  0  0  0  0
   -0.3771   -3.5875    0.0000 C   0  0  0  0  0  0  0  0  0  0  0  0
    1.1147   -3.4307    0.0000 C   0  0  0  0  0  0  0  0  0  0  0  0
    1.5782   -4.8573    0.0000 C   0  0  0  0  0  0  0  0  0  0  0  0
    2.4138   -2.6807    0.0000 C   0  0  0  0  0  0  0  0  0  0  0  0
    3.4175   -3.7955    0.0000 O   0  0  0  0  0  0  0  0  0  0  0  0
    4.8847   -3.4836    0.0000 C   0  0  0  0  0  0  0  0  0  0  0  0
    3.2954   -1.4672    0.0000 C   0  0  0  0  0  0  0  0  0  0  0  0
    4.7726   -1.2067    0.0000 C   0  0  0  0  0  0  0  0  0  0  0  0
    4.0903   -2.7393    0.0000 O   0  0  0  0  0  0  0  0  0  0  0  0
    5.5894   -2.6869    0.0000 C   0  0  0  0  0  0  0  0  0  0  0  0
  1  2  1  0
  3  2  1  6
  3  4  1  0
  4  5  1  0
  5  6  2  0
  5  7  1  0
  7  8  1  1
  7  9  1  0
  9 10  1  6
 11 10  1  1
 11 12  1  0
 12 13  1  0
 13 14  1  6
 13 15  1  0
 15 16  1  0
 13 17  1  0
 17 18  1  1
 18 19  1  0
 17 20  1  0
 20 21  1  1
 20 22  1  0
  9 23  1  0
 23 24  1  1
 23 25  1  0
 25 26  1  6
 27 26  1  1
 27 28  1  0
 28 29  1  0
 29 30  1  1
 29 31  1  0
 31 32  1  0
 32 33  1  6
 33 34  1  0
 33 35  1  0
 32 36  1  0
 36 37  1  6
 25 38  1  0
 38 39  1  6
 38 40  1  0
 38 41  1  0
 41 42  1  0
 42 43  1  6
 42 44  1  0
 44 45  1  0
 44 46  1  0
 46 47  1  0
 47 48  1  1
 47 49  1  0
 49 50  1  6
 50 51  1  0
 49 52  1  0
 52 53  1  6
 52 54  1  0
 54 55  1  0
 52  3  1  0
 22 11  1  0
 36 27  1  0
M  END
>  <ChEMBL_IDs>  (466) 
CHEMBL3037836

>  <target_organism>  (466) 
None

>  <target_molecule_pref_name>  (466) 
nan

>  <# Known Targets>  (466) 
nan

>  <Known Targets>  (466) 
nan

>  <smiles>  (466) 
CC[C@H]1OC(=O)[C@H](C)[C@@H](O[C@H]2C[C@@](C)(OC)[C@@H](OC)[C@@H](C)O2)[C@H](C)[C@@H](O[C@@H]2O[C@H](C)C[C@@H](N(C)C)[C@H]2O)[C@](C)(O)C[C@@H](C)N(C)C[C@H](C)[C@@H](OC)[C@]1(C)OC

$$$$

     RDKit          2D

 55 57  0  0  0  0  0  0  0  0999 V2000
    5.8573   -1.2990    0.0000 C   0  0  0  0  0  0  0  0  0  0  0  0
    5.1073    0.0000    0.0000 C   0  0  0  0  0  0  0  0  0  0  0  0
    3.6073    0.0000    0.0000 C   0  0  0  0  0  0  0  0  0  0  0  0
    3.2954    1.4672    0.0000 O   0  0  0  0  0  0  0  0  0  0  0  0
    2.4138    2.6807    0.0000 C   0  0  0  0  0  0  0  0  0  0  0  0
    3.4175    3.7955    0.0000 O   0  0  0  0  0  0  0  0  0  0  0  0
    1.1147    3.4307    0.0000 C   0  0  0  0  0  0  0  0  0  0  0  0
    1.8302    4.5756    0.0000 C   0  0  0  0  0  0  0  0  0  0  0  0
   -0.3771    3.5875    0.0000 C   0  0  0  0  0  0  0  0  0  0  0  0
   -0.5339    5.0793    0.0000 O   0  0  0  0  0  0  0  0  0  0  0  0
    0.6797    5.9610    0.0000 C   0  0  0  0  0  0  0  0  0  0  0  0
    0.5229    7.4528    0.0000 C   0  0  0  0  0  0  0  0  0  0  0  0
    1.7364    8.3345    0.0000 C   0  0  0  0  0  0  0  0  0  0  0  0
    2.5752    9.5780    0.0000 C   0  0  0  0  0  0  0  0  0  0  0  0
    0.6574    9.3764    0.0000 O   0  0  0  0  0  0  0  0  0  0  0  0
    1.0203   10.8319    0.0000 C   0  0  0  0  0  0  0  0  0  0  0  0
    3.1067    7.7244    0.0000 C   0  0  0  0  0  0  0  0  0  0  0  0
    4.3202    8.6060    0.0000 O   0  0  0  0  0  0  0  0  0  0  0  0
    5.6906    7.9959    0.0000 C   0  0  0  0  0  0  0  0  0  0  0  0
    3.2635    6.2326    0.0000 C   0  0  0  0  0  0  0  0  0  0  0  0
    4.6338    5.6225    0.0000 C   0  0  0  0  0  0  0  0  0  0  0  0
    2.0500    5.3509    0.0000 O   0  0  0  0  0  0  0  0  0  0  0  0
   -1.8037    3.1240    0.0000 C   0  0  0  0  0  0  0  0  0  0  0  0
   -2.5537    4.4231    0.0000 C   0  0  0  0  0  0  0  0  0  0  0  0
   -2.9184    2.1203    0.0000 C   0  0  0  0  0  0  0  0  0  0  0  0
   -4.1319    3.0020    0.0000 O   0  0  0  0  0  0  0  0  0  0  0  0
   -5.5022    2.3919    0.0000 C   0  0  0  0  0  0  0  0  0  0  0  0
   -6.7157    3.2736    0.0000 O   0  0  0  0  0  0  0  0  0  0  0  0
   -8.0861    2.6635    0.0000 C   0  0  0  0  0  0  0  0  0  0  0  0
   -9.2996    3.5451    0.0000 C   0  0  0  0  0  0  0  0  0  0  0  0
   -8.2428    1.1717    0.0000 C   0  0  0  0  0  0  0  0  0  0  0  0
   -7.0293    0.2900    0.0000 C   0  0  0  0  0  0  0  0  0  0  0  0
   -7.1861   -1.2018    0.0000 N   0  0  0  0  0  0  0  0  0  0  0  0
   -8.5564   -1.8119    0.0000 C   0  0  0  0  0  0  0  0  0  0  0  0
   -5.9726   -2.0835    0.0000 C   0  0  0  0  0  0  0  0  0  0  0  0
   -5.6590    0.9001    0.0000 C   0  0  0  0  0  0  0  0  0  0  0  0
   -5.0760    0.3564    0.0000 O   0  0  0  0  0  0  0  0  0  0  0  0
   -3.5285    0.7500    0.0000 C   0  0  0  0  0  0  0  0  0  0  0  0
   -4.2257    0.3635    0.0000 C   0  0  0  0  0  0  0  0  0  0  0  0
   -4.5705    1.8290    0.0000 O   0  0  0  0  0  0  0  0  0  0  0  0
   -3.5285   -0.7500    0.0000 C   0  0  0  0  0  0  0  0  0  0  0  0
   -2.9184   -2.1203    0.0000 C   0  0  0  0  0  0  0  0  0  0  0  0
   -4.1319   -3.0020    0.0000 C   0  0  0  0  0  0  0  0  0  0  0  0
   -1.8037   -3.1240    0.0000 C   0  0  0  0  0  0  0  0  0  0  0  0
   -0.3771   -3.5875    0.0000 N   0  0  0  0  0  0  0  0  0  0  0  0
   -0.5339   -5.0793    0.0000 C   0  0  0  0  0  0  0  0  0  0  0  0
    1.1147   -3.4307    0.0000 C   0  0  0  0  0  0  0  0  0  0  0  0
    1.5782   -4.8573    0.0000 C   0  0  0  0  0  0  0  0  0  0  0  0
    2.4138   -2.6807    0.0000 C   0  0  0  0  0  0  0  0  0  0  0  0
    3.4175   -3.7955    0.0000 O   0  0  0  0  0  0  0  0  0  0  0  0
    4.8847   -3.4836    0.0000 C   0  0  0  0  0  0  0  0  0  0  0  0
    3.2954   -1.4672    0.0000 C   0  0  0  0  0  0  0  0  0  0  0  0
    4.7726   -1.2067    0.0000 C   0  0  0  0  0  0  0  0  0  0  0  0
    4.0903   -2.7393    0.0000 O   0  0  0  0  0  0  0  0  0  0  0  0
    5.5894   -2.6869    0.0000 C   0  0  0  0  0  0  0  0  0  0  0  0
  1  2  1  0
  3  2  1  6
  3  4  1  0
  4  5  1  0
  5  6  2  0
  5  7  1  0
  7  8  1  1
  7  9  1  0
  9 10  1  6
 11 10  1  1
 11 12  1  0
 12 13  1  0
 13 14  1  6
 13 15  1  0
 15 16  1  0
 13 17  1  0
 17 18  1  1
 18 19  1  0
 17 20  1  0
 20 21  1  1
 20 22  1  0
  9 23  1  0
 23 24  1  1
 23 25  1  0
 25 26  1  6
 27 26  1  1
 27 28  1  0
 28 29  1  0
 29 30  1  1
 29 31  1  0
 31 32  1  0
 32 33  1  6
 33 34  1  0
 33 35  1  0
 32 36  1  0
 36 37  1  6
 25 38  1  0
 38 39  1  6
 38 40  1  0
 38 41  1  0
 41 42  1  0
 42 43  1  6
 42 44  1  0
 44 45  1  0
 45 46  1  0
 45 47  1  0
 47 48  1  1
 47 49  1  0
 49 50  1  6
 50 51  1  0
 49 52  1  0
 52 53  1  6
 52 54  1  0
 54 55  1  0
 52  3  1  0
 22 11  1  0
 36 27  1  0
M  END
>  <ChEMBL_IDs>  (467) 
CHEMBL2368180

>  <target_organism>  (467) 
Homo sapiens

>  <target_molecule_pref_name>  (467) 
nan

>  <# Known Targets>  (467) 
nan

>  <Known Targets>  (467) 
nan

>  <smiles>  (467) 
CC[C@H]1OC(=O)[C@H](C)[C@@H](O[C@H]2C[C@@](C)(OC)[C@@H](OC)[C@@H](C)O2)[C@H](C)[C@@H](O[C@@H]2O[C@H](C)C[C@@H](N(C)C)[C@H]2O)[C@](C)(O)C[C@@H](C)CN(C)[C@H](C)[C@@H](OC)[C@]1(C)OC

$$$$

     RDKit          2D

 56 58  0  0  0  0  0  0  0  0999 V2000
    5.6205   -1.2990    0.0000 C   0  0  0  0  0  0  0  0  0  0  0  0
    4.8705    0.0000    0.0000 C   0  0  0  0  0  0  0  0  0  0  0  0
    3.3705    0.0000    0.0000 C   0  0  0  0  0  0  0  0  0  0  0  0
    3.0367   -1.4624    0.0000 O   0  0  0  0  0  0  0  0  0  0  0  0
    2.1015   -2.6351    0.0000 C   0  0  0  0  0  0  0  0  0  0  0  0
    3.0367   -3.8079    0.0000 O   0  0  0  0  0  0  0  0  0  0  0  0
    0.7500   -3.2860    0.0000 C   0  0  0  0  0  0  0  0  0  0  0  0
    1.3600   -4.4903    0.0000 C   0  0  0  0  0  0  0  0  0  0  0  0
   -0.7500   -3.2860    0.0000 C   0  0  0  0  0  0  0  0  0  0  0  0
   -1.0838   -4.7484    0.0000 O   0  0  0  0  0  0  0  0  0  0  0  0
    0.0158   -5.7686    0.0000 C   0  0  0  0  0  0  0  0  0  0  0  0
   -0.3180   -7.2310    0.0000 C   0  0  0  0  0  0  0  0  0  0  0  0
    0.7816   -8.2513    0.0000 C   0  0  0  0  0  0  0  0  0  0  0  0
    1.4659   -9.5861    0.0000 C   0  0  0  0  0  0  0  0  0  0  0  0
   -0.4141   -9.1570    0.0000 O   0  0  0  0  0  0  0  0  0  0  0  0
   -0.2276  -10.6453    0.0000 C   0  0  0  0  0  0  0  0  0  0  0  0
    2.2150   -7.8091    0.0000 C   0  0  0  0  0  0  0  0  0  0  0  0
    3.3145   -8.8294    0.0000 O   0  0  0  0  0  0  0  0  0  0  0  0
    2.5487   -6.3467    0.0000 C   0  0  0  0  0  0  0  0  0  0  0  0
    3.9821   -5.9046    0.0000 C   0  0  0  0  0  0  0  0  0  0  0  0
    1.4492   -5.3265    0.0000 O   0  0  0  0  0  0  0  0  0  0  0  0
   -2.1015   -2.6351    0.0000 C   0  0  0  0  0  0  0  0  0  0  0  0
   -3.0367   -3.8079    0.0000 C   0  0  0  0  0  0  0  0  0  0  0  0
   -3.0367   -1.4624    0.0000 C   0  0  0  0  0  0  0  0  0  0  0  0
   -4.3881   -2.1132    0.0000 O   0  0  0  0  0  0  0  0  0  0  0  0
   -5.6275   -1.2682    0.0000 C   0  0  0  0  0  0  0  0  0  0  0  0
   -5.5154    0.2276    0.0000 O   0  0  0  0  0  0  0  0  0  0  0  0
   -6.7548    1.0725    0.0000 C   0  0  0  0  0  0  0  0  0  0  0  0
   -6.6427    2.5684    0.0000 C   0  0  0  0  0  0  0  0  0  0  0  0
   -8.1062    0.4217    0.0000 C   0  0  0  0  0  0  0  0  0  0  0  0
   -8.2183   -1.0741    0.0000 C   0  0  0  0  0  0  0  0  0  0  0  0
   -9.5698   -1.7249    0.0000 N   0  0  0  0  0  0  0  0  0  0  0  0
  -10.8091   -0.8799    0.0000 C   0  0  0  0  0  0  0  0  0  0  0  0
   -9.6819   -3.2207    0.0000 C   0  0  0  0  0  0  0  0  0  0  0  0
   -6.9790   -1.9191    0.0000 C   0  0  0  0  0  0  0  0  0  0  0  0
   -7.0910   -3.4149    0.0000 O   0  0  0  0  0  0  0  0  0  0  0  0
   -3.3705    0.0000    0.0000 C   0  0  0  0  0  0  0  0  0  0  0  0
   -4.6098   -0.8450    0.0000 C   0  0  0  0  0  0  0  0  0  0  0  0
   -4.6098    0.8450    0.0000 O   0  0  0  0  0  0  0  0  0  0  0  0
   -3.0367    1.4624    0.0000 C   0  0  0  0  0  0  0  0  0  0  0  0
   -2.1015    2.6351    0.0000 C   0  0  0  0  0  0  0  0  0  0  0  0
   -3.0367    3.8079    0.0000 C   0  0  0  0  0  0  0  0  0  0  0  0
   -0.7500    3.2860    0.0000 C   0  0  0  0  0  0  0  0  0  0  0  0
   -1.0838    4.7484    0.0000 N   0  0  0  0  0  0  0  0  0  0  0  0
    0.0158    5.7686    0.0000 C   0  0  0  0  0  0  0  0  0  0  0  0
   -0.3180    7.2310    0.0000 C   0  0  0  0  0  0  0  0  0  0  0  0
    0.7816    8.2513    0.0000 C   0  0  0  0  0  0  0  0  0  0  0  0
    0.4478    9.7137    0.0000 S   0  0  0  0  0  0  0  0  0  0  0  0
    1.5474   10.7339    0.0000 C   0  0  0  0  0  0  0  0  0  0  0  0
    0.7500    3.2860    0.0000 C   0  0  0  0  0  0  0  0  0  0  0  0
    1.0838    4.7484    0.0000 C   0  0  0  0  0  0  0  0  0  0  0  0
    2.1015    2.6351    0.0000 C   0  0  0  0  0  0  0  0  0  0  0  0
    3.0367    3.8079    0.0000 O   0  0  0  0  0  0  0  0  0  0  0  0
    3.0367    1.4624    0.0000 C   0  0  0  0  0  0  0  0  0  0  0  0
    3.7867    2.7614    0.0000 C   0  0  0  0  0  0  0  0  0  0  0  0
    4.5199    1.2388    0.0000 O   0  0  0  0  0  0  0  0  0  0  0  0
  1  2  1  0
  3  2  1  1
  3  4  1  0
  4  5  1  0
  5  6  2  0
  5  7  1  0
  7  8  1  6
  7  9  1  0
  9 10  1  1
 10 11  1  0
 11 12  1  0
 12 13  1  0
 13 14  1  0
 13 15  1  0
 15 16  1  0
 13 17  1  0
 17 18  1  0
 17 19  1  0
 19 20  1  0
 19 21  1  0
  9 22  1  0
 22 23  1  6
 22 24  1  0
 24 25  1  1
 25 26  1  0
 26 27  1  0
 27 28  1  0
 28 29  1  0
 28 30  1  0
 30 31  1  0
 31 32  1  0
 32 33  1  0
 32 34  1  0
 31 35  1  0
 35 36  1  0
 24 37  1  0
 37 38  1  1
 37 39  1  0
 37 40  1  0
 40 41  1  0
 41 42  1  1
 41 43  1  0
 43 44  1  6
 44 45  1  0
 45 46  1  0
 46 47  1  0
 47 48  1  0
 48 49  1  0
 43 50  1  0
 50 51  1  6
 50 52  1  0
 52 53  1  1
 52 54  1  0
 54 55  1  1
 54 56  1  0
 54  3  1  0
 21 11  1  0
 35 26  1  0
M  END
>  <ChEMBL_IDs>  (468) 
CHEMBL318097

>  <target_organism>  (468) 
None

>  <target_molecule_pref_name>  (468) 
nan

>  <# Known Targets>  (468) 
nan

>  <Known Targets>  (468) 
nan

>  <smiles>  (468) 
CC[C@H]1OC(=O)[C@H](C)[C@@H](OC2CC(C)(OC)C(O)C(C)O2)[C@H](C)[C@@H](OC2OC(C)CC(N(C)C)C2O)[C@](C)(O)C[C@@H](C)[C@H](NCCCSC)[C@H](C)[C@@H](O)[C@]1(C)O

$$$$

     RDKit          2D

 56 58  0  0  0  0  0  0  0  0999 V2000
    5.6205   -1.2990    0.0000 C   0  0  0  0  0  0  0  0  0  0  0  0
    4.8705    0.0000    0.0000 C   0  0  0  0  0  0  0  0  0  0  0  0
    3.3705    0.0000    0.0000 C   0  0  0  0  0  0  0  0  0  0  0  0
    3.0367   -1.4624    0.0000 O   0  0  0  0  0  0  0  0  0  0  0  0
    2.1015   -2.6351    0.0000 C   0  0  0  0  0  0  0  0  0  0  0  0
    3.0367   -3.8079    0.0000 O   0  0  0  0  0  0  0  0  0  0  0  0
    0.7500   -3.2860    0.0000 C   0  0  0  0  0  0  0  0  0  0  0  0
    1.3600   -4.4903    0.0000 C   0  0  0  0  0  0  0  0  0  0  0  0
   -0.7500   -3.2860    0.0000 C   0  0  0  0  0  0  0  0  0  0  0  0
   -1.0838   -4.7484    0.0000 O   0  0  0  0  0  0  0  0  0  0  0  0
    0.0158   -5.7686    0.0000 C   0  0  0  0  0  0  0  0  0  0  0  0
   -0.3180   -7.2310    0.0000 C   0  0  0  0  0  0  0  0  0  0  0  0
    0.7816   -8.2513    0.0000 C   0  0  0  0  0  0  0  0  0  0  0  0
    1.4659   -9.5861    0.0000 C   0  0  0  0  0  0  0  0  0  0  0  0
   -0.4141   -9.1570    0.0000 O   0  0  0  0  0  0  0  0  0  0  0  0
   -0.2276  -10.6453    0.0000 C   0  0  0  0  0  0  0  0  0  0  0  0
    2.2150   -7.8091    0.0000 C   0  0  0  0  0  0  0  0  0  0  0  0
    3.3145   -8.8294    0.0000 O   0  0  0  0  0  0  0  0  0  0  0  0
    2.5487   -6.3467    0.0000 C   0  0  0  0  0  0  0  0  0  0  0  0
    3.9821   -5.9046    0.0000 C   0  0  0  0  0  0  0  0  0  0  0  0
    1.4492   -5.3265    0.0000 O   0  0  0  0  0  0  0  0  0  0  0  0
   -2.1015   -2.6351    0.0000 C   0  0  0  0  0  0  0  0  0  0  0  0
   -3.0367   -3.8079    0.0000 C   0  0  0  0  0  0  0  0  0  0  0  0
   -3.0367   -1.4624    0.0000 C   0  0  0  0  0  0  0  0  0  0  0  0
   -4.3881   -2.1132    0.0000 O   0  0  0  0  0  0  0  0  0  0  0  0
   -5.6275   -1.2682    0.0000 C   0  0  0  0  0  0  0  0  0  0  0  0
   -5.5154    0.2276    0.0000 O   0  0  0  0  0  0  0  0  0  0  0  0
   -6.7548    1.0725    0.0000 C   0  0  0  0  0  0  0  0  0  0  0  0
   -6.6427    2.5684    0.0000 C   0  0  0  0  0  0  0  0  0  0  0  0
   -8.1062    0.4217    0.0000 C   0  0  0  0  0  0  0  0  0  0  0  0
   -8.2183   -1.0741    0.0000 C   0  0  0  0  0  0  0  0  0  0  0  0
   -9.5698   -1.7249    0.0000 N   0  0  0  0  0  0  0  0  0  0  0  0
  -10.8091   -0.8799    0.0000 C   0  0  0  0  0  0  0  0  0  0  0  0
   -9.6819   -3.2207    0.0000 C   0  0  0  0  0  0  0  0  0  0  0  0
   -6.9790   -1.9191    0.0000 C   0  0  0  0  0  0  0  0  0  0  0  0
   -7.0910   -3.4149    0.0000 O   0  0  0  0  0  0  0  0  0  0  0  0
   -3.3705    0.0000    0.0000 C   0  0  0  0  0  0  0  0  0  0  0  0
   -4.6098   -0.8450    0.0000 C   0  0  0  0  0  0  0  0  0  0  0  0
   -4.6098    0.8450    0.0000 O   0  0  0  0  0  0  0  0  0  0  0  0
   -3.0367    1.4624    0.0000 C   0  0  0  0  0  0  0  0  0  0  0  0
   -2.1015    2.6351    0.0000 C   0  0  0  0  0  0  0  0  0  0  0  0
   -3.0367    3.8079    0.0000 C   0  0  0  0  0  0  0  0  0  0  0  0
   -0.7500    3.2860    0.0000 C   0  0  0  0  0  0  0  0  0  0  0  0
   -1.0838    4.7484    0.0000 N   0  0  0  0  0  0  0  0  0  0  0  0
    0.0158    5.7686    0.0000 C   0  0  0  0  0  0  0  0  0  0  0  0
   -0.3180    7.2310    0.0000 C   0  0  0  0  0  0  0  0  0  0  0  0
    0.7816    8.2513    0.0000 C   0  0  0  0  0  0  0  0  0  0  0  0
    0.4478    9.7137    0.0000 O   0  0  0  0  0  0  0  0  0  0  0  0
    1.5474   10.7339    0.0000 C   0  0  0  0  0  0  0  0  0  0  0  0
    0.7500    3.2860    0.0000 C   0  0  0  0  0  0  0  0  0  0  0  0
    1.0838    4.7484    0.0000 C   0  0  0  0  0  0  0  0  0  0  0  0
    2.1015    2.6351    0.0000 C   0  0  0  0  0  0  0  0  0  0  0  0
    3.0367    3.8079    0.0000 O   0  0  0  0  0  0  0  0  0  0  0  0
    3.0367    1.4624    0.0000 C   0  0  0  0  0  0  0  0  0  0  0  0
    3.7867    2.7614    0.0000 C   0  0  0  0  0  0  0  0  0  0  0  0
    4.5199    1.2388    0.0000 O   0  0  0  0  0  0  0  0  0  0  0  0
  1  2  1  0
  3  2  1  1
  3  4  1  0
  4  5  1  0
  5  6  2  0
  5  7  1  0
  7  8  1  6
  7  9  1  0
  9 10  1  1
 10 11  1  0
 11 12  1  0
 12 13  1  0
 13 14  1  0
 13 15  1  0
 15 16  1  0
 13 17  1  0
 17 18  1  0
 17 19  1  0
 19 20  1  0
 19 21  1  0
  9 22  1  0
 22 23  1  6
 22 24  1  0
 24 25  1  1
 25 26  1  0
 26 27  1  0
 27 28  1  0
 28 29  1  0
 28 30  1  0
 30 31  1  0
 31 32  1  0
 32 33  1  0
 32 34  1  0
 31 35  1  0
 35 36  1  0
 24 37  1  0
 37 38  1  1
 37 39  1  0
 37 40  1  0
 40 41  1  0
 41 42  1  1
 41 43  1  0
 43 44  1  6
 44 45  1  0
 45 46  1  0
 46 47  1  0
 47 48  1  0
 48 49  1  0
 43 50  1  0
 50 51  1  6
 50 52  1  0
 52 53  1  1
 52 54  1  0
 54 55  1  1
 54 56  1  0
 54  3  1  0
 21 11  1  0
 35 26  1  0
M  END
>  <ChEMBL_IDs>  (469) 
CHEMBL320938

>  <target_organism>  (469) 
None

>  <target_molecule_pref_name>  (469) 
nan

>  <# Known Targets>  (469) 
nan

>  <Known Targets>  (469) 
nan

>  <smiles>  (469) 
CC[C@H]1OC(=O)[C@H](C)[C@@H](OC2CC(C)(OC)C(O)C(C)O2)[C@H](C)[C@@H](OC2OC(C)CC(N(C)C)C2O)[C@](C)(O)C[C@@H](C)[C@H](NCCCOC)[C@H](C)[C@@H](O)[C@]1(C)O

$$$$

     RDKit          2D

 56 58  0  0  0  0  0  0  0  0999 V2000
    5.8573   -1.2990    0.0000 C   0  0  0  0  0  0  0  0  0  0  0  0
    5.1073    0.0000    0.0000 C   0  0  0  0  0  0  0  0  0  0  0  0
    3.6073    0.0000    0.0000 C   0  0  0  0  0  0  0  0  0  0  0  0
    3.2954    1.4672    0.0000 O   0  0  0  0  0  0  0  0  0  0  0  0
    2.4138    2.6807    0.0000 C   0  0  0  0  0  0  0  0  0  0  0  0
    3.4175    3.7955    0.0000 O   0  0  0  0  0  0  0  0  0  0  0  0
    1.1147    3.4307    0.0000 C   0  0  0  0  0  0  0  0  0  0  0  0
    1.8302    4.5756    0.0000 C   0  0  0  0  0  0  0  0  0  0  0  0
   -0.3771    3.5875    0.0000 C   0  0  0  0  0  0  0  0  0  0  0  0
   -0.5339    5.0793    0.0000 O   0  0  0  0  0  0  0  0  0  0  0  0
    0.6797    5.9610    0.0000 C   0  0  0  0  0  0  0  0  0  0  0  0
    0.5229    7.4528    0.0000 C   0  0  0  0  0  0  0  0  0  0  0  0
    1.7364    8.3345    0.0000 C   0  0  0  0  0  0  0  0  0  0  0  0
    2.5752    9.5780    0.0000 C   0  0  0  0  0  0  0  0  0  0  0  0
    0.6574    9.3764    0.0000 O   0  0  0  0  0  0  0  0  0  0  0  0
    1.0203   10.8319    0.0000 C   0  0  0  0  0  0  0  0  0  0  0  0
    3.1067    7.7244    0.0000 C   0  0  0  0  0  0  0  0  0  0  0  0
    3.4696    9.1798    0.0000 O   0  0  0  0  0  0  0  0  0  0  0  0
    4.6031    7.6197    0.0000 C   0  0  0  0  0  0  0  0  0  0  0  0
    5.4419    8.8633    0.0000 C   0  0  0  0  0  0  0  0  0  0  0  0
    6.9382    8.7586    0.0000 C   0  0  0  0  0  0  0  0  0  0  0  0
    7.7770   10.0022    0.0000 O   0  0  0  0  0  0  0  0  0  0  0  0
    9.2733    9.8976    0.0000 C   0  0  0  0  0  0  0  0  0  0  0  0
    3.2635    6.2326    0.0000 C   0  0  0  0  0  0  0  0  0  0  0  0
    4.6338    5.6225    0.0000 C   0  0  0  0  0  0  0  0  0  0  0  0
    2.0500    5.3509    0.0000 O   0  0  0  0  0  0  0  0  0  0  0  0
   -1.8037    3.1240    0.0000 C   0  0  0  0  0  0  0  0  0  0  0  0
   -2.5537    4.4231    0.0000 C   0  0  0  0  0  0  0  0  0  0  0  0
   -2.9184    2.1203    0.0000 C   0  0  0  0  0  0  0  0  0  0  0  0
   -4.1319    3.0020    0.0000 O   0  0  0  0  0  0  0  0  0  0  0  0
   -5.5022    2.3919    0.0000 C   0  0  0  0  0  0  0  0  0  0  0  0
   -6.7157    3.2736    0.0000 O   0  0  0  0  0  0  0  0  0  0  0  0
   -8.0861    2.6635    0.0000 C   0  0  0  0  0  0  0  0  0  0  0  0
   -9.2996    3.5451    0.0000 C   0  0  0  0  0  0  0  0  0  0  0  0
   -8.2428    1.1717    0.0000 C   0  0  0  0  0  0  0  0  0  0  0  0
   -7.0293    0.2900    0.0000 C   0  0  0  0  0  0  0  0  0  0  0  0
   -7.1861   -1.2018    0.0000 N   0  0  0  0  0  0  0  0  0  0  0  0
   -8.5564   -1.8119    0.0000 C   0  0  0  0  0  0  0  0  0  0  0  0
   -5.9726   -2.0835    0.0000 C   0  0  0  0  0  0  0  0  0  0  0  0
   -5.6590    0.9001    0.0000 C   0  0  0  0  0  0  0  0  0  0  0  0
   -5.0760    0.3564    0.0000 O   0  0  0  0  0  0  0  0  0  0  0  0
   -3.5285    0.7500    0.0000 C   0  0  0  0  0  0  0  0  0  0  0  0
   -4.2257    0.3635    0.0000 C   0  0  0  0  0  0  0  0  0  0  0  0
   -4.5705    1.8290    0.0000 O   0  0  0  0  0  0  0  0  0  0  0  0
   -3.5285   -0.7500    0.0000 C   0  0  0  0  0  0  0  0  0  0  0  0
   -2.9184   -2.1203    0.0000 C   0  0  0  0  0  0  0  0  0  0  0  0
   -4.1319   -3.0020    0.0000 C   0  0  0  0  0  0  0  0  0  0  0  0
   -1.8037   -3.1240    0.0000 C   0  0  0  0  0  0  0  0  0  0  0  0
   -0.3771   -3.5875    0.0000 N   0  0  0  0  0  0  0  0  0  0  0  0
    1.1147   -3.4307    0.0000 C   0  0  0  0  0  0  0  0  0  0  0  0
    1.5782   -4.8573    0.0000 C   0  0  0  0  0  0  0  0  0  0  0  0
    2.4138   -2.6807    0.0000 C   0  0  0  0  0  0  0  0  0  0  0  0
    3.4175   -3.7955    0.0000 O   0  0  0  0  0  0  0  0  0  0  0  0
    3.2954   -1.4672    0.0000 C   0  0  0  0  0  0  0  0  0  0  0  0
    4.7726   -1.2067    0.0000 C   0  0  0  0  0  0  0  0  0  0  0  0
    4.0903   -2.7393    0.0000 O   0  0  0  0  0  0  0  0  0  0  0  0
  1  2  1  0
  3  2  1  6
  3  4  1  0
  4  5  1  0
  5  6  2  0
  5  7  1  0
  7  8  1  1
  7  9  1  0
  9 10  1  6
 11 10  1  1
 11 12  1  0
 12 13  1  0
 13 14  1  6
 13 15  1  0
 15 16  1  0
 13 17  1  0
 17 18  1  6
 17 19  1  0
 19 20  1  0
 20 21  1  0
 21 22  1  0
 22 23  1  0
 17 24  1  0
 24 25  1  6
 24 26  1  0
  9 27  1  0
 27 28  1  1
 27 29  1  0
 29 30  1  6
 31 30  1  1
 31 32  1  0
 32 33  1  0
 33 34  1  1
 33 35  1  0
 35 36  1  0
 36 37  1  1
 37 38  1  0
 37 39  1  0
 36 40  1  0
 40 41  1  6
 29 42  1  0
 42 43  1  6
 42 44  1  0
 42 45  1  0
 45 46  1  0
 46 47  1  6
 46 48  1  0
 48 49  1  0
 49 50  1  0
 50 51  1  1
 50 52  1  0
 52 53  1  6
 52 54  1  0
 54 55  1  6
 54 56  1  0
 54  3  1  0
 26 11  1  0
 40 31  1  0
M  END
>  <ChEMBL_IDs>  (470) 
CHEMBL441792

>  <target_organism>  (470) 
Rattus norvegicus

>  <target_molecule_pref_name>  (470) 
nan

>  <# Known Targets>  (470) 
nan

>  <Known Targets>  (470) 
nan

>  <smiles>  (470) 
CC[C@H]1OC(=O)[C@H](C)[C@@H](O[C@H]2C[C@@](C)(OC)[C@@](O)(CCCOC)[C@H](C)O2)[C@H](C)[C@@H](O[C@@H]2O[C@H](C)C[C@H](N(C)C)[C@H]2O)[C@](C)(O)C[C@@H](C)CN[C@H](C)[C@@H](O)[C@]1(C)O

$$$$

     RDKit          2D

 55 57  0  0  0  0  0  0  0  0999 V2000
    8.1073   -2.5981    0.0000 C   0  0  0  0  0  0  0  0  0  0  0  0
    7.3573   -1.2990    0.0000 C   0  0  0  0  0  0  0  0  0  0  0  0
    5.8573   -1.2990    0.0000 N   0  0  0  0  0  0  0  0  0  0  0  0
    5.1073   -2.5981    0.0000 C   0  0  0  0  0  0  0  0  0  0  0  0
    5.8573   -3.8971    0.0000 C   0  0  0  0  0  0  0  0  0  0  0  0
    5.1073    0.0000    0.0000 C   0  0  0  0  0  0  0  0  0  0  0  0
    3.6073    0.0000    0.0000 C   0  0  0  0  0  0  0  0  0  0  0  0
    3.2954    1.4672    0.0000 C   0  0  0  0  0  0  0  0  0  0  0  0
    2.4138    2.6807    0.0000 O   0  0  0  0  0  0  0  0  0  0  0  0
    1.1147    3.4307    0.0000 C   0  0  0  0  0  0  0  0  0  0  0  0
    1.5782    4.8573    0.0000 O   0  0  0  0  0  0  0  0  0  0  0  0
   -0.3771    3.5875    0.0000 C   0  0  0  0  0  0  0  0  0  0  0  0
   -0.1891    4.9244    0.0000 C   0  0  0  0  0  0  0  0  0  0  0  0
   -1.8037    3.1240    0.0000 C   0  0  0  0  0  0  0  0  0  0  0  0
   -2.5537    4.4231    0.0000 O   0  0  0  0  0  0  0  0  0  0  0  0
   -1.8037    5.7221    0.0000 C   0  0  0  0  0  0  0  0  0  0  0  0
   -2.5537    7.0211    0.0000 C   0  0  0  0  0  0  0  0  0  0  0  0
   -1.8037    8.3202    0.0000 C   0  0  0  0  0  0  0  0  0  0  0  0
   -1.5432    9.7974    0.0000 C   0  0  0  0  0  0  0  0  0  0  0  0
   -3.2132    8.8332    0.0000 O   0  0  0  0  0  0  0  0  0  0  0  0
   -3.4737   10.3104    0.0000 C   0  0  0  0  0  0  0  0  0  0  0  0
   -0.3037    8.3202    0.0000 C   0  0  0  0  0  0  0  0  0  0  0  0
    0.4463    9.6192    0.0000 O   0  0  0  0  0  0  0  0  0  0  0  0
    0.4463    7.0211    0.0000 C   0  0  0  0  0  0  0  0  0  0  0  0
    1.9463    7.0211    0.0000 C   0  0  0  0  0  0  0  0  0  0  0  0
   -0.3037    5.7221    0.0000 O   0  0  0  0  0  0  0  0  0  0  0  0
   -2.9184    2.1203    0.0000 C   0  0  0  0  0  0  0  0  0  0  0  0
   -4.1319    3.0020    0.0000 C   0  0  0  0  0  0  0  0  0  0  0  0
   -3.5285    0.7500    0.0000 C   0  0  0  0  0  0  0  0  0  0  0  0
   -4.9957    1.0619    0.0000 O   0  0  0  0  0  0  0  0  0  0  0  0
   -5.9994   -0.0528    0.0000 C   0  0  0  0  0  0  0  0  0  0  0  0
   -7.4666    0.2590    0.0000 O   0  0  0  0  0  0  0  0  0  0  0  0
   -8.4703   -0.8557    0.0000 C   0  0  0  0  0  0  0  0  0  0  0  0
   -9.9375   -0.5438    0.0000 C   0  0  0  0  0  0  0  0  0  0  0  0
   -8.0068   -2.2823    0.0000 C   0  0  0  0  0  0  0  0  0  0  0  0
   -6.5396   -2.5942    0.0000 C   0  0  0  0  0  0  0  0  0  0  0  0
   -6.0760   -4.0207    0.0000 N   0  0  0  0  0  0  0  0  0  0  0  0
   -7.0797   -5.1355    0.0000 C   0  0  0  0  0  0  0  0  0  0  0  0
   -4.6088   -4.3326    0.0000 C   0  0  0  0  0  0  0  0  0  0  0  0
   -5.5359   -1.4794    0.0000 C   0  0  0  0  0  0  0  0  0  0  0  0
   -4.7821   -1.7390    0.0000 O   0  0  0  0  0  0  0  0  0  0  0  0
   -3.5285   -0.7500    0.0000 C   0  0  0  0  0  0  0  0  0  0  0  0
   -4.0082   -1.3867    0.0000 C   0  0  0  0  0  0  0  0  0  0  0  0
   -4.9192   -0.1881    0.0000 O   0  0  0  0  0  0  0  0  0  0  0  0
   -5.8427   -1.3702    0.0000 C   0  0  0  0  0  0  0  0  0  0  0  0
   -2.9184   -2.1203    0.0000 C   0  0  0  0  0  0  0  0  0  0  0  0
   -1.8037   -3.1240    0.0000 C   0  0  0  0  0  0  0  0  0  0  0  0
   -2.5537   -4.4231    0.0000 C   0  0  0  0  0  0  0  0  0  0  0  0
   -0.3771   -3.5875    0.0000 C   0  0  0  0  0  0  0  0  0  0  0  0
   -0.5339   -5.0793    0.0000 O   0  0  0  0  0  0  0  0  0  0  0  0
    1.1147   -3.4307    0.0000 C   0  0  0  0  0  0  0  0  0  0  0  0
    1.5782   -4.8573    0.0000 C   0  0  0  0  0  0  0  0  0  0  0  0
    2.4138   -2.6807    0.0000 C   0  0  0  0  0  0  0  0  0  0  0  0
    3.2954   -1.4672    0.0000 N   0  0  0  0  0  0  0  0  0  0  0  0
    4.4774   -2.3908    0.0000 C   0  0  0  0  0  0  0  0  0  0  0  0
  1  2  1  0
  2  3  1  0
  3  4  1  0
  4  5  1  0
  3  6  1  0
  7  6  1  6
  7  8  1  0
  8  9  1  0
  9 10  1  0
 10 11  2  0
 10 12  1  0
 12 13  1  1
 12 14  1  0
 14 15  1  6
 16 15  1  1
 16 17  1  0
 17 18  1  0
 18 19  1  6
 18 20  1  0
 20 21  1  0
 18 22  1  0
 22 23  1  1
 22 24  1  0
 24 25  1  6
 24 26  1  0
 14 27  1  0
 27 28  1  1
 27 29  1  0
 29 30  1  6
 31 30  1  1
 31 32  1  0
 32 33  1  0
 33 34  1  1
 33 35  1  0
 35 36  1  0
 36 37  1  1
 37 38  1  0
 37 39  1  0
 36 40  1  0
 40 41  1  6
 29 42  1  0
 42 43  1  6
 42 44  1  0
 44 45  1  0
 42 46  1  0
 46 47  1  0
 47 48  1  6
 47 49  1  0
 49 50  1  1
 49 51  1  0
 51 52  1  1
 51 53  1  0
 53 54  1  0
 54 55  1  0
 54  7  1  0
 26 16  1  0
 40 31  1  0
M  END
>  <ChEMBL_IDs>  (471) 
CHEMBL2146796

>  <target_organism>  (471) 
Plasmodium falciparum

>  <target_molecule_pref_name>  (471) 
nan

>  <# Known Targets>  (471) 
nan

>  <Known Targets>  (471) 
nan

>  <smiles>  (471) 
CCN(CC)C[C@H]1COC(=O)[C@H](C)[C@@H](O[C@H]2C[C@@](C)(OC)[C@@H](O)[C@H](C)O2)[C@H](C)[C@@H](O[C@@H]2O[C@H](C)C[C@H](N(C)C)[C@H]2O)[C@](C)(OC)C[C@@H](C)[C@H](O)[C@H](C)CN1C

$$$$

     RDKit          2D

 56 58  0  0  0  0  0  0  0  0999 V2000
    5.6205   -1.2990    0.0000 C   0  0  0  0  0  0  0  0  0  0  0  0
    4.8705    0.0000    0.0000 C   0  0  0  0  0  0  0  0  0  0  0  0
    3.3705    0.0000    0.0000 C   0  0  0  0  0  0  0  0  0  0  0  0
    3.0367   -1.4624    0.0000 O   0  0  0  0  0  0  0  0  0  0  0  0
    2.1015   -2.6351    0.0000 C   0  0  0  0  0  0  0  0  0  0  0  0
    3.0367   -3.8079    0.0000 O   0  0  0  0  0  0  0  0  0  0  0  0
    0.7500   -3.2860    0.0000 C   0  0  0  0  0  0  0  0  0  0  0  0
    1.3600   -4.4903    0.0000 C   0  0  0  0  0  0  0  0  0  0  0  0
   -0.7500   -3.2860    0.0000 C   0  0  0  0  0  0  0  0  0  0  0  0
   -1.0838   -4.7484    0.0000 O   0  0  0  0  0  0  0  0  0  0  0  0
    0.0158   -5.7686    0.0000 C   0  0  0  0  0  0  0  0  0  0  0  0
   -0.3180   -7.2310    0.0000 C   0  0  0  0  0  0  0  0  0  0  0  0
    0.7816   -8.2513    0.0000 C   0  0  0  0  0  0  0  0  0  0  0  0
    1.4659   -9.5861    0.0000 C   0  0  0  0  0  0  0  0  0  0  0  0
   -0.4141   -9.1570    0.0000 O   0  0  0  0  0  0  0  0  0  0  0  0
   -0.2276  -10.6453    0.0000 C   0  0  0  0  0  0  0  0  0  0  0  0
    2.2150   -7.8091    0.0000 C   0  0  0  0  0  0  0  0  0  0  0  0
    3.3145   -8.8294    0.0000 O   0  0  0  0  0  0  0  0  0  0  0  0
    2.5487   -6.3467    0.0000 C   0  0  0  0  0  0  0  0  0  0  0  0
    3.9821   -5.9046    0.0000 C   0  0  0  0  0  0  0  0  0  0  0  0
    1.4492   -5.3265    0.0000 O   0  0  0  0  0  0  0  0  0  0  0  0
   -2.1015   -2.6351    0.0000 C   0  0  0  0  0  0  0  0  0  0  0  0
   -3.0367   -3.8079    0.0000 C   0  0  0  0  0  0  0  0  0  0  0  0
   -3.0367   -1.4624    0.0000 C   0  0  0  0  0  0  0  0  0  0  0  0
   -4.3881   -2.1132    0.0000 O   0  0  0  0  0  0  0  0  0  0  0  0
   -5.6275   -1.2682    0.0000 C   0  0  0  0  0  0  0  0  0  0  0  0
   -5.5154    0.2276    0.0000 O   0  0  0  0  0  0  0  0  0  0  0  0
   -6.7548    1.0725    0.0000 C   0  0  0  0  0  0  0  0  0  0  0  0
   -6.6427    2.5684    0.0000 C   0  0  0  0  0  0  0  0  0  0  0  0
   -8.1062    0.4217    0.0000 C   0  0  0  0  0  0  0  0  0  0  0  0
   -8.2183   -1.0741    0.0000 C   0  0  0  0  0  0  0  0  0  0  0  0
   -9.5698   -1.7249    0.0000 N   0  0  0  0  0  0  0  0  0  0  0  0
  -10.8091   -0.8799    0.0000 C   0  0  0  0  0  0  0  0  0  0  0  0
   -9.6819   -3.2207    0.0000 C   0  0  0  0  0  0  0  0  0  0  0  0
   -6.9790   -1.9191    0.0000 C   0  0  0  0  0  0  0  0  0  0  0  0
   -7.0910   -3.4149    0.0000 O   0  0  0  0  0  0  0  0  0  0  0  0
   -3.3705    0.0000    0.0000 C   0  0  0  0  0  0  0  0  0  0  0  0
   -4.6098   -0.8450    0.0000 C   0  0  0  0  0  0  0  0  0  0  0  0
   -4.6098    0.8450    0.0000 O   0  0  0  0  0  0  0  0  0  0  0  0
   -3.0367    1.4624    0.0000 C   0  0  0  0  0  0  0  0  0  0  0  0
   -2.1015    2.6351    0.0000 C   0  0  0  0  0  0  0  0  0  0  0  0
   -3.0367    3.8079    0.0000 C   0  0  0  0  0  0  0  0  0  0  0  0
   -0.7500    3.2860    0.0000 C   0  0  0  0  0  0  0  0  0  0  0  0
   -1.0838    4.7484    0.0000 N   0  0  0  0  0  0  0  0  0  0  0  0
    0.0158    5.7686    0.0000 C   0  0  0  0  0  0  0  0  0  0  0  0
   -0.3180    7.2310    0.0000 C   0  0  0  0  0  0  0  0  0  0  0  0
    0.7816    8.2513    0.0000 C   0  0  0  0  0  0  0  0  0  0  0  0
    0.4478    9.7137    0.0000 C   0  0  0  0  0  0  0  0  0  0  0  0
    1.5474   10.7339    0.0000 N   0  0  0  0  0  0  0  0  0  0  0  0
    0.7500    3.2860    0.0000 C   0  0  0  0  0  0  0  0  0  0  0  0
    1.0838    4.7484    0.0000 C   0  0  0  0  0  0  0  0  0  0  0  0
    2.1015    2.6351    0.0000 C   0  0  0  0  0  0  0  0  0  0  0  0
    3.0367    3.8079    0.0000 O   0  0  0  0  0  0  0  0  0  0  0  0
    3.0367    1.4624    0.0000 C   0  0  0  0  0  0  0  0  0  0  0  0
    3.7867    2.7614    0.0000 C   0  0  0  0  0  0  0  0  0  0  0  0
    4.5199    1.2388    0.0000 O   0  0  0  0  0  0  0  0  0  0  0  0
  1  2  1  0
  3  2  1  1
  3  4  1  0
  4  5  1  0
  5  6  2  0
  5  7  1  0
  7  8  1  6
  7  9  1  0
  9 10  1  1
 10 11  1  0
 11 12  1  0
 12 13  1  0
 13 14  1  0
 13 15  1  0
 15 16  1  0
 13 17  1  0
 17 18  1  0
 17 19  1  0
 19 20  1  0
 19 21  1  0
  9 22  1  0
 22 23  1  6
 22 24  1  0
 24 25  1  1
 25 26  1  0
 26 27  1  0
 27 28  1  0
 28 29  1  0
 28 30  1  0
 30 31  1  0
 31 32  1  0
 32 33  1  0
 32 34  1  0
 31 35  1  0
 35 36  1  0
 24 37  1  0
 37 38  1  1
 37 39  1  0
 37 40  1  0
 40 41  1  0
 41 42  1  1
 41 43  1  0
 43 44  1  6
 44 45  1  0
 45 46  1  0
 46 47  1  0
 47 48  1  0
 48 49  1  0
 43 50  1  0
 50 51  1  6
 50 52  1  0
 52 53  1  1
 52 54  1  0
 54 55  1  1
 54 56  1  0
 54  3  1  0
 21 11  1  0
 35 26  1  0
M  END
>  <ChEMBL_IDs>  (472) 
CHEMBL318321

>  <target_organism>  (472) 
None

>  <target_molecule_pref_name>  (472) 
nan

>  <# Known Targets>  (472) 
nan

>  <Known Targets>  (472) 
nan

>  <smiles>  (472) 
CC[C@H]1OC(=O)[C@H](C)[C@@H](OC2CC(C)(OC)C(O)C(C)O2)[C@H](C)[C@@H](OC2OC(C)CC(N(C)C)C2O)[C@](C)(O)C[C@@H](C)[C@H](NCCCCN)[C@H](C)[C@@H](O)[C@]1(C)O

$$$$

     RDKit          2D

 56 58  0  0  0  0  0  0  0  0999 V2000
    7.6474   12.5895    0.0000 C   0  0  0  0  0  0  0  0  0  0  0  0
    6.5684   11.5475    0.0000 C   0  0  0  0  0  0  0  0  0  0  0  0
    6.9313   10.0921    0.0000 C   0  0  0  0  0  0  0  0  0  0  0  0
    5.8523    9.0501    0.0000 N   0  0  0  0  0  0  0  0  0  0  0  0
    6.2151    7.5947    0.0000 C   0  0  0  0  0  0  0  0  0  0  0  0
    5.1361    6.5527    0.0000 C   0  0  0  0  0  0  0  0  0  0  0  0
    4.2973    7.7962    0.0000 O   0  0  0  0  0  0  0  0  0  0  0  0
    3.7658    5.9426    0.0000 C   0  0  0  0  0  0  0  0  0  0  0  0
    2.5523    6.8242    0.0000 C   0  0  0  0  0  0  0  0  0  0  0  0
    3.6090    4.4508    0.0000 O   0  0  0  0  0  0  0  0  0  0  0  0
    4.8225    3.5691    0.0000 C   0  0  0  0  0  0  0  0  0  0  0  0
    4.6658    2.0773    0.0000 O   0  0  0  0  0  0  0  0  0  0  0  0
    3.2954    1.4672    0.0000 C   0  0  0  0  0  0  0  0  0  0  0  0
    3.6073    0.0000    0.0000 C   0  0  0  0  0  0  0  0  0  0  0  0
    5.1073    0.0000    0.0000 C   0  0  0  0  0  0  0  0  0  0  0  0
    3.2954   -1.4672    0.0000 C   0  0  0  0  0  0  0  0  0  0  0  0
    4.6658   -2.0773    0.0000 O   0  0  0  0  0  0  0  0  0  0  0  0
    4.8225   -3.5691    0.0000 C   0  0  0  0  0  0  0  0  0  0  0  0
    3.6090   -4.4508    0.0000 O   0  0  0  0  0  0  0  0  0  0  0  0
    3.7658   -5.9426    0.0000 C   0  0  0  0  0  0  0  0  0  0  0  0
    2.5523   -6.8242    0.0000 C   0  0  0  0  0  0  0  0  0  0  0  0
    5.1361   -6.5527    0.0000 C   0  0  0  0  0  0  0  0  0  0  0  0
    6.3497   -5.6710    0.0000 C   0  0  0  0  0  0  0  0  0  0  0  0
    7.7200   -6.2811    0.0000 N   0  0  0  0  0  0  0  0  0  0  0  0
    7.8768   -7.7729    0.0000 C   0  0  0  0  0  0  0  0  0  0  0  0
    8.9335   -5.3994    0.0000 C   0  0  0  0  0  0  0  0  0  0  0  0
    6.1929   -4.1792    0.0000 C   0  0  0  0  0  0  0  0  0  0  0  0
    7.4064   -3.2975    0.0000 O   0  0  0  0  0  0  0  0  0  0  0  0
    2.4138   -2.6807    0.0000 C   0  0  0  0  0  0  0  0  0  0  0  0
    3.8692   -3.0436    0.0000 C   0  0  0  0  0  0  0  0  0  0  0  0
    2.6225   -4.1661    0.0000 O   0  0  0  0  0  0  0  0  0  0  0  0
    1.1147   -3.4307    0.0000 C   0  0  0  0  0  0  0  0  0  0  0  0
   -0.3771   -3.5875    0.0000 C   0  0  0  0  0  0  0  0  0  0  0  0
   -0.5339   -5.0793    0.0000 C   0  0  0  0  0  0  0  0  0  0  0  0
   -1.8037   -3.1240    0.0000 C   0  0  0  0  0  0  0  0  0  0  0  0
   -2.9184   -2.1203    0.0000 N   0  0  0  0  0  0  0  0  0  0  0  0
   -3.5285   -0.7500    0.0000 C   0  0  0  0  0  0  0  0  0  0  0  0
   -4.9957   -1.0619    0.0000 C   0  0  0  0  0  0  0  0  0  0  0  0
   -3.5285    0.7500    0.0000 C   0  0  0  0  0  0  0  0  0  0  0  0
   -4.9957    1.0619    0.0000 O   0  0  0  0  0  0  0  0  0  0  0  0
   -2.9184    2.1203    0.0000 C   0  0  0  0  0  0  0  0  0  0  0  0
   -4.4175    2.1727    0.0000 C   0  0  0  0  0  0  0  0  0  0  0  0
   -3.4314    3.5299    0.0000 O   0  0  0  0  0  0  0  0  0  0  0  0
   -1.8037    3.1240    0.0000 C   0  0  0  0  0  0  0  0  0  0  0  0
   -2.5537    4.4231    0.0000 C   0  0  0  0  0  0  0  0  0  0  0  0
   -1.8037    5.7221    0.0000 C   0  0  0  0  0  0  0  0  0  0  0  0
   -0.3771    3.5875    0.0000 O   0  0  0  0  0  0  0  0  0  0  0  0
    1.1147    3.4307    0.0000 C   0  0  0  0  0  0  0  0  0  0  0  0
    1.5782    4.8573    0.0000 O   0  0  0  0  0  0  0  0  0  0  0  0
    2.4138    2.6807    0.0000 C   0  0  0  0  0  0  0  0  0  0  0  0
    3.0475    3.8728    0.0000 C   0  0  0  0  0  0  0  0  0  0  0  0
    6.1929    4.1792    0.0000 C   0  0  0  0  0  0  0  0  0  0  0  0
    6.3497    5.6710    0.0000 C   0  0  0  0  0  0  0  0  0  0  0  0
    7.7915    5.2575    0.0000 C   0  0  0  0  0  0  0  0  0  0  0  0
    7.0072    7.0192    0.0000 O   0  0  0  0  0  0  0  0  0  0  0  0
    8.5036    7.1238    0.0000 C   0  0  0  0  0  0  0  0  0  0  0  0
  1  2  1  0
  2  3  1  0
  3  4  1  0
  4  5  1  0
  5  6  1  0
  6  7  1  1
  6  8  1  0
  8  9  1  1
  8 10  1  0
 10 11  1  0
 11 12  1  6
 13 12  1  1
 13 14  1  0
 14 15  1  6
 14 16  1  0
 16 17  1  1
 18 17  1  1
 18 19  1  0
 19 20  1  0
 20 21  1  1
 20 22  1  0
 22 23  1  0
 23 24  1  1
 24 25  1  0
 24 26  1  0
 23 27  1  0
 27 28  1  6
 16 29  1  0
 29 30  1  1
 29 31  1  0
 29 32  1  0
 32 33  1  0
 33 34  1  1
 33 35  1  0
 35 36  1  0
 36 37  1  0
 37 38  1  6
 37 39  1  0
 39 40  1  1
 39 41  1  0
 41 42  1  1
 41 43  1  0
 41 44  1  0
 44 45  1  1
 45 46  1  0
 44 47  1  0
 47 48  1  0
 48 49  2  0
 48 50  1  0
 50 51  1  6
 11 52  1  0
 52 53  1  0
 53 54  1  1
 53 55  1  0
 55 56  1  0
 53  6  1  0
 50 13  1  0
 27 18  1  0
M  END
>  <ChEMBL_IDs>  (473) 
CHEMBL2367783

>  <target_organism>  (473) 
Homo sapiens

>  <target_molecule_pref_name>  (473) 
nan

>  <# Known Targets>  (473) 
nan

>  <Known Targets>  (473) 
nan

>  <smiles>  (473) 
CCCNC[C@@]1(O)[C@H](C)O[C@@H](O[C@H]2[C@H](C)[C@@H](O[C@@H]3O[C@H](C)C[C@H](N(C)C)[C@H]3O)[C@](C)(O)C[C@@H](C)CN[C@H](C)[C@@H](O)[C@](C)(O)[C@@H](CC)OC(=O)[C@@H]2C)C[C@@]1(C)OC

$$$$

     RDKit          2D

 56 58  0  0  0  0  0  0  0  0999 V2000
    5.8573   -1.2990    0.0000 C   0  0  0  0  0  0  0  0  0  0  0  0
    5.1073    0.0000    0.0000 C   0  0  0  0  0  0  0  0  0  0  0  0
    3.6073    0.0000    0.0000 C   0  0  0  0  0  0  0  0  0  0  0  0
    3.2954    1.4672    0.0000 O   0  0  0  0  0  0  0  0  0  0  0  0
    2.4138    2.6807    0.0000 C   0  0  0  0  0  0  0  0  0  0  0  0
    3.4175    3.7955    0.0000 O   0  0  0  0  0  0  0  0  0  0  0  0
    1.1147    3.4307    0.0000 C   0  0  0  0  0  0  0  0  0  0  0  0
    1.8302    4.5756    0.0000 C   0  0  0  0  0  0  0  0  0  0  0  0
   -0.3771    3.5875    0.0000 C   0  0  0  0  0  0  0  0  0  0  0  0
   -0.5339    5.0793    0.0000 O   0  0  0  0  0  0  0  0  0  0  0  0
    0.6797    5.9610    0.0000 C   0  0  0  0  0  0  0  0  0  0  0  0
    0.5229    7.4528    0.0000 C   0  0  0  0  0  0  0  0  0  0  0  0
    1.7364    8.3345    0.0000 C   0  0  0  0  0  0  0  0  0  0  0  0
    2.5752    9.5780    0.0000 C   0  0  0  0  0  0  0  0  0  0  0  0
    0.6574    9.3764    0.0000 O   0  0  0  0  0  0  0  0  0  0  0  0
    1.0203   10.8319    0.0000 C   0  0  0  0  0  0  0  0  0  0  0  0
    3.1067    7.7244    0.0000 C   0  0  0  0  0  0  0  0  0  0  0  0
    3.4696    9.1798    0.0000 O   0  0  0  0  0  0  0  0  0  0  0  0
    4.6031    7.6197    0.0000 C   0  0  0  0  0  0  0  0  0  0  0  0
    5.4419    8.8633    0.0000 N   0  0  0  0  0  0  0  0  0  0  0  0
    6.9382    8.7586    0.0000 C   0  0  0  0  0  0  0  0  0  0  0  0
    4.7843   10.2115    0.0000 C   0  0  0  0  0  0  0  0  0  0  0  0
    5.6231   11.4550    0.0000 C   0  0  0  0  0  0  0  0  0  0  0  0
    3.2635    6.2326    0.0000 C   0  0  0  0  0  0  0  0  0  0  0  0
    4.6338    5.6225    0.0000 C   0  0  0  0  0  0  0  0  0  0  0  0
    2.0500    5.3509    0.0000 O   0  0  0  0  0  0  0  0  0  0  0  0
   -1.8037    3.1240    0.0000 C   0  0  0  0  0  0  0  0  0  0  0  0
   -2.5537    4.4231    0.0000 C   0  0  0  0  0  0  0  0  0  0  0  0
   -2.9184    2.1203    0.0000 C   0  0  0  0  0  0  0  0  0  0  0  0
   -4.1319    3.0020    0.0000 O   0  0  0  0  0  0  0  0  0  0  0  0
   -5.5022    2.3919    0.0000 C   0  0  0  0  0  0  0  0  0  0  0  0
   -6.7157    3.2736    0.0000 O   0  0  0  0  0  0  0  0  0  0  0  0
   -8.0861    2.6635    0.0000 C   0  0  0  0  0  0  0  0  0  0  0  0
   -9.2996    3.5451    0.0000 C   0  0  0  0  0  0  0  0  0  0  0  0
   -8.2428    1.1717    0.0000 C   0  0  0  0  0  0  0  0  0  0  0  0
   -7.0293    0.2900    0.0000 C   0  0  0  0  0  0  0  0  0  0  0  0
   -7.1861   -1.2018    0.0000 N   0  0  0  0  0  0  0  0  0  0  0  0
   -8.5564   -1.8119    0.0000 C   0  0  0  0  0  0  0  0  0  0  0  0
   -5.9726   -2.0835    0.0000 C   0  0  0  0  0  0  0  0  0  0  0  0
   -5.6590    0.9001    0.0000 C   0  0  0  0  0  0  0  0  0  0  0  0
   -5.0760    0.3564    0.0000 O   0  0  0  0  0  0  0  0  0  0  0  0
   -3.5285    0.7500    0.0000 C   0  0  0  0  0  0  0  0  0  0  0  0
   -4.2257    0.3635    0.0000 C   0  0  0  0  0  0  0  0  0  0  0  0
   -4.5705    1.8290    0.0000 O   0  0  0  0  0  0  0  0  0  0  0  0
   -3.5285   -0.7500    0.0000 C   0  0  0  0  0  0  0  0  0  0  0  0
   -2.9184   -2.1203    0.0000 C   0  0  0  0  0  0  0  0  0  0  0  0
   -4.1319   -3.0020    0.0000 C   0  0  0  0  0  0  0  0  0  0  0  0
   -1.8037   -3.1240    0.0000 C   0  0  0  0  0  0  0  0  0  0  0  0
   -0.3771   -3.5875    0.0000 N   0  0  0  0  0  0  0  0  0  0  0  0
    1.1147   -3.4307    0.0000 C   0  0  0  0  0  0  0  0  0  0  0  0
    1.5782   -4.8573    0.0000 C   0  0  0  0  0  0  0  0  0  0  0  0
    2.4138   -2.6807    0.0000 C   0  0  0  0  0  0  0  0  0  0  0  0
    3.4175   -3.7955    0.0000 O   0  0  0  0  0  0  0  0  0  0  0  0
    3.2954   -1.4672    0.0000 C   0  0  0  0  0  0  0  0  0  0  0  0
    4.7726   -1.2067    0.0000 C   0  0  0  0  0  0  0  0  0  0  0  0
    4.0903   -2.7393    0.0000 O   0  0  0  0  0  0  0  0  0  0  0  0
  1  2  1  0
  3  2  1  6
  3  4  1  0
  4  5  1  0
  5  6  2  0
  5  7  1  0
  7  8  1  1
  7  9  1  0
  9 10  1  6
 11 10  1  1
 11 12  1  0
 12 13  1  0
 13 14  1  6
 13 15  1  0
 15 16  1  0
 13 17  1  0
 17 18  1  6
 17 19  1  0
 19 20  1  0
 20 21  1  0
 20 22  1  0
 22 23  1  0
 17 24  1  0
 24 25  1  6
 24 26  1  0
  9 27  1  0
 27 28  1  1
 27 29  1  0
 29 30  1  6
 31 30  1  1
 31 32  1  0
 32 33  1  0
 33 34  1  1
 33 35  1  0
 35 36  1  0
 36 37  1  1
 37 38  1  0
 37 39  1  0
 36 40  1  0
 40 41  1  6
 29 42  1  0
 42 43  1  6
 42 44  1  0
 42 45  1  0
 45 46  1  0
 46 47  1  6
 46 48  1  0
 48 49  1  0
 49 50  1  0
 50 51  1  1
 50 52  1  0
 52 53  1  6
 52 54  1  0
 54 55  1  6
 54 56  1  0
 54  3  1  0
 26 11  1  0
 40 31  1  0
M  END
>  <ChEMBL_IDs>  (474) 
CHEMBL96120

>  <target_organism>  (474) 
None

>  <target_molecule_pref_name>  (474) 
nan

>  <# Known Targets>  (474) 
nan

>  <Known Targets>  (474) 
nan

>  <smiles>  (474) 
CC[C@H]1OC(=O)[C@H](C)[C@@H](O[C@H]2C[C@@](C)(OC)[C@@](O)(CN(C)CC)[C@H](C)O2)[C@H](C)[C@@H](O[C@@H]2O[C@H](C)C[C@H](N(C)C)[C@H]2O)[C@](C)(O)C[C@@H](C)CN[C@H](C)[C@@H](O)[C@]1(C)O

$$$$

     RDKit          2D

 57 59  0  0  0  0  0  0  0  0999 V2000
    5.8573   -1.2990    0.0000 C   0  0  0  0  0  0  0  0  0  0  0  0
    5.1073    0.0000    0.0000 C   0  0  0  0  0  0  0  0  0  0  0  0
    3.6073    0.0000    0.0000 C   0  0  0  0  0  0  0  0  0  0  0  0
    3.2954    1.4672    0.0000 O   0  0  0  0  0  0  0  0  0  0  0  0
    2.4138    2.6807    0.0000 C   0  0  0  0  0  0  0  0  0  0  0  0
    3.4175    3.7955    0.0000 O   0  0  0  0  0  0  0  0  0  0  0  0
    1.1147    3.4307    0.0000 C   0  0  0  0  0  0  0  0  0  0  0  0
    1.8302    4.5756    0.0000 C   0  0  0  0  0  0  0  0  0  0  0  0
   -0.3771    3.5875    0.0000 C   0  0  0  0  0  0  0  0  0  0  0  0
   -0.5339    5.0793    0.0000 O   0  0  0  0  0  0  0  0  0  0  0  0
    0.6797    5.9610    0.0000 C   0  0  0  0  0  0  0  0  0  0  0  0
    0.5229    7.4528    0.0000 C   0  0  0  0  0  0  0  0  0  0  0  0
    1.7364    8.3345    0.0000 C   0  0  0  0  0  0  0  0  0  0  0  0
    2.5752    9.5780    0.0000 C   0  0  0  0  0  0  0  0  0  0  0  0
    0.6574    9.3764    0.0000 O   0  0  0  0  0  0  0  0  0  0  0  0
    1.0203   10.8319    0.0000 C   0  0  0  0  0  0  0  0  0  0  0  0
    3.1067    7.7244    0.0000 C   0  0  0  0  0  0  0  0  0  0  0  0
    3.4696    9.1798    0.0000 O   0  0  0  0  0  0  0  0  0  0  0  0
    4.6031    7.6197    0.0000 C   0  0  0  0  0  0  0  0  0  0  0  0
    5.4419    8.8633    0.0000 N   0  0  0  0  0  0  0  0  0  0  0  0
    6.9382    8.7586    0.0000 C   0  0  0  0  0  0  0  0  0  0  0  0
    7.7770   10.0022    0.0000 C   0  0  0  0  0  0  0  0  0  0  0  0
    9.2733    9.8976    0.0000 O   0  0  0  0  0  0  0  0  0  0  0  0
   10.1121   11.1411    0.0000 C   0  0  0  0  0  0  0  0  0  0  0  0
    3.2635    6.2326    0.0000 C   0  0  0  0  0  0  0  0  0  0  0  0
    4.6338    5.6225    0.0000 C   0  0  0  0  0  0  0  0  0  0  0  0
    2.0500    5.3509    0.0000 O   0  0  0  0  0  0  0  0  0  0  0  0
   -1.8037    3.1240    0.0000 C   0  0  0  0  0  0  0  0  0  0  0  0
   -2.5537    4.4231    0.0000 C   0  0  0  0  0  0  0  0  0  0  0  0
   -2.9184    2.1203    0.0000 C   0  0  0  0  0  0  0  0  0  0  0  0
   -4.1319    3.0020    0.0000 O   0  0  0  0  0  0  0  0  0  0  0  0
   -5.5022    2.3919    0.0000 C   0  0  0  0  0  0  0  0  0  0  0  0
   -6.7157    3.2736    0.0000 O   0  0  0  0  0  0  0  0  0  0  0  0
   -8.0861    2.6635    0.0000 C   0  0  0  0  0  0  0  0  0  0  0  0
   -9.2996    3.5451    0.0000 C   0  0  0  0  0  0  0  0  0  0  0  0
   -8.2428    1.1717    0.0000 C   0  0  0  0  0  0  0  0  0  0  0  0
   -7.0293    0.2900    0.0000 C   0  0  0  0  0  0  0  0  0  0  0  0
   -7.1861   -1.2018    0.0000 N   0  0  0  0  0  0  0  0  0  0  0  0
   -8.5564   -1.8119    0.0000 C   0  0  0  0  0  0  0  0  0  0  0  0
   -5.9726   -2.0835    0.0000 C   0  0  0  0  0  0  0  0  0  0  0  0
   -5.6590    0.9001    0.0000 C   0  0  0  0  0  0  0  0  0  0  0  0
   -5.0760    0.3564    0.0000 O   0  0  0  0  0  0  0  0  0  0  0  0
   -3.5285    0.7500    0.0000 C   0  0  0  0  0  0  0  0  0  0  0  0
   -4.2257    0.3635    0.0000 C   0  0  0  0  0  0  0  0  0  0  0  0
   -4.5705    1.8290    0.0000 O   0  0  0  0  0  0  0  0  0  0  0  0
   -3.5285   -0.7500    0.0000 C   0  0  0  0  0  0  0  0  0  0  0  0
   -2.9184   -2.1203    0.0000 C   0  0  0  0  0  0  0  0  0  0  0  0
   -4.1319   -3.0020    0.0000 C   0  0  0  0  0  0  0  0  0  0  0  0
   -1.8037   -3.1240    0.0000 C   0  0  0  0  0  0  0  0  0  0  0  0
   -0.3771   -3.5875    0.0000 N   0  0  0  0  0  0  0  0  0  0  0  0
    1.1147   -3.4307    0.0000 C   0  0  0  0  0  0  0  0  0  0  0  0
    1.5782   -4.8573    0.0000 C   0  0  0  0  0  0  0  0  0  0  0  0
    2.4138   -2.6807    0.0000 C   0  0  0  0  0  0  0  0  0  0  0  0
    3.4175   -3.7955    0.0000 O   0  0  0  0  0  0  0  0  0  0  0  0
    3.2954   -1.4672    0.0000 C   0  0  0  0  0  0  0  0  0  0  0  0
    4.7726   -1.2067    0.0000 C   0  0  0  0  0  0  0  0  0  0  0  0
    4.0903   -2.7393    0.0000 O   0  0  0  0  0  0  0  0  0  0  0  0
  1  2  1  0
  3  2  1  6
  3  4  1  0
  4  5  1  0
  5  6  2  0
  5  7  1  0
  7  8  1  1
  7  9  1  0
  9 10  1  6
 11 10  1  1
 11 12  1  0
 12 13  1  0
 13 14  1  6
 13 15  1  0
 15 16  1  0
 13 17  1  0
 17 18  1  6
 17 19  1  0
 19 20  1  0
 20 21  1  0
 21 22  1  0
 22 23  1  0
 23 24  1  0
 17 25  1  0
 25 26  1  6
 25 27  1  0
  9 28  1  0
 28 29  1  1
 28 30  1  0
 30 31  1  6
 32 31  1  1
 32 33  1  0
 33 34  1  0
 34 35  1  1
 34 36  1  0
 36 37  1  0
 37 38  1  1
 38 39  1  0
 38 40  1  0
 37 41  1  0
 41 42  1  6
 30 43  1  0
 43 44  1  6
 43 45  1  0
 43 46  1  0
 46 47  1  0
 47 48  1  6
 47 49  1  0
 49 50  1  0
 50 51  1  0
 51 52  1  1
 51 53  1  0
 53 54  1  6
 53 55  1  0
 55 56  1  6
 55 57  1  0
 55  3  1  0
 27 11  1  0
 41 32  1  0
M  END
>  <ChEMBL_IDs>  (475) 
CHEMBL431618

>  <target_organism>  (475) 
Rattus norvegicus

>  <target_molecule_pref_name>  (475) 
nan

>  <# Known Targets>  (475) 
nan

>  <Known Targets>  (475) 
nan

>  <smiles>  (475) 
CC[C@H]1OC(=O)[C@H](C)[C@@H](O[C@H]2C[C@@](C)(OC)[C@@](O)(CNCCOC)[C@H](C)O2)[C@H](C)[C@@H](O[C@@H]2O[C@H](C)C[C@H](N(C)C)[C@H]2O)[C@](C)(O)C[C@@H](C)CN[C@H](C)[C@@H](O)[C@]1(C)O

$$$$

     RDKit          2D

 57 59  0  0  0  0  0  0  0  0999 V2000
    5.8573   -1.2990    0.0000 C   0  0  0  0  0  0  0  0  0  0  0  0
    5.1073    0.0000    0.0000 C   0  0  0  0  0  0  0  0  0  0  0  0
    3.6073    0.0000    0.0000 C   0  0  0  0  0  0  0  0  0  0  0  0
    3.2954    1.4672    0.0000 O   0  0  0  0  0  0  0  0  0  0  0  0
    2.4138    2.6807    0.0000 C   0  0  0  0  0  0  0  0  0  0  0  0
    3.4175    3.7955    0.0000 O   0  0  0  0  0  0  0  0  0  0  0  0
    1.1147    3.4307    0.0000 C   0  0  0  0  0  0  0  0  0  0  0  0
    1.8302    4.5756    0.0000 C   0  0  0  0  0  0  0  0  0  0  0  0
   -0.3771    3.5875    0.0000 C   0  0  0  0  0  0  0  0  0  0  0  0
   -0.5339    5.0793    0.0000 O   0  0  0  0  0  0  0  0  0  0  0  0
    0.6797    5.9610    0.0000 C   0  0  0  0  0  0  0  0  0  0  0  0
    0.5229    7.4528    0.0000 C   0  0  0  0  0  0  0  0  0  0  0  0
    1.7364    8.3345    0.0000 C   0  0  0  0  0  0  0  0  0  0  0  0
    2.5752    9.5780    0.0000 C   0  0  0  0  0  0  0  0  0  0  0  0
    0.6574    9.3764    0.0000 O   0  0  0  0  0  0  0  0  0  0  0  0
    1.0203   10.8319    0.0000 C   0  0  0  0  0  0  0  0  0  0  0  0
    3.1067    7.7244    0.0000 C   0  0  0  0  0  0  0  0  0  0  0  0
    3.4696    9.1798    0.0000 O   0  0  0  0  0  0  0  0  0  0  0  0
    4.6031    7.6197    0.0000 C   0  0  0  0  0  0  0  0  0  0  0  0
    5.4419    8.8633    0.0000 N   0  0  0  0  0  0  0  0  0  0  0  0
    6.9382    8.7586    0.0000 C   0  0  0  0  0  0  0  0  0  0  0  0
    4.7843   10.2115    0.0000 C   0  0  0  0  0  0  0  0  0  0  0  0
    5.6231   11.4550    0.0000 C   0  0  0  0  0  0  0  0  0  0  0  0
    4.9655   12.8032    0.0000 O   0  0  0  0  0  0  0  0  0  0  0  0
    3.2635    6.2326    0.0000 C   0  0  0  0  0  0  0  0  0  0  0  0
    4.6338    5.6225    0.0000 C   0  0  0  0  0  0  0  0  0  0  0  0
    2.0500    5.3509    0.0000 O   0  0  0  0  0  0  0  0  0  0  0  0
   -1.8037    3.1240    0.0000 C   0  0  0  0  0  0  0  0  0  0  0  0
   -2.5537    4.4231    0.0000 C   0  0  0  0  0  0  0  0  0  0  0  0
   -2.9184    2.1203    0.0000 C   0  0  0  0  0  0  0  0  0  0  0  0
   -4.1319    3.0020    0.0000 O   0  0  0  0  0  0  0  0  0  0  0  0
   -5.5022    2.3919    0.0000 C   0  0  0  0  0  0  0  0  0  0  0  0
   -6.7157    3.2736    0.0000 O   0  0  0  0  0  0  0  0  0  0  0  0
   -8.0861    2.6635    0.0000 C   0  0  0  0  0  0  0  0  0  0  0  0
   -9.2996    3.5451    0.0000 C   0  0  0  0  0  0  0  0  0  0  0  0
   -8.2428    1.1717    0.0000 C   0  0  0  0  0  0  0  0  0  0  0  0
   -7.0293    0.2900    0.0000 C   0  0  0  0  0  0  0  0  0  0  0  0
   -7.1861   -1.2018    0.0000 N   0  0  0  0  0  0  0  0  0  0  0  0
   -8.5564   -1.8119    0.0000 C   0  0  0  0  0  0  0  0  0  0  0  0
   -5.9726   -2.0835    0.0000 C   0  0  0  0  0  0  0  0  0  0  0  0
   -5.6590    0.9001    0.0000 C   0  0  0  0  0  0  0  0  0  0  0  0
   -5.0760    0.3564    0.0000 O   0  0  0  0  0  0  0  0  0  0  0  0
   -3.5285    0.7500    0.0000 C   0  0  0  0  0  0  0  0  0  0  0  0
   -4.2257    0.3635    0.0000 C   0  0  0  0  0  0  0  0  0  0  0  0
   -4.5705    1.8290    0.0000 O   0  0  0  0  0  0  0  0  0  0  0  0
   -3.5285   -0.7500    0.0000 C   0  0  0  0  0  0  0  0  0  0  0  0
   -2.9184   -2.1203    0.0000 C   0  0  0  0  0  0  0  0  0  0  0  0
   -4.1319   -3.0020    0.0000 C   0  0  0  0  0  0  0  0  0  0  0  0
   -1.8037   -3.1240    0.0000 C   0  0  0  0  0  0  0  0  0  0  0  0
   -0.3771   -3.5875    0.0000 N   0  0  0  0  0  0  0  0  0  0  0  0
    1.1147   -3.4307    0.0000 C   0  0  0  0  0  0  0  0  0  0  0  0
    1.5782   -4.8573    0.0000 C   0  0  0  0  0  0  0  0  0  0  0  0
    2.4138   -2.6807    0.0000 C   0  0  0  0  0  0  0  0  0  0  0  0
    3.4175   -3.7955    0.0000 O   0  0  0  0  0  0  0  0  0  0  0  0
    3.2954   -1.4672    0.0000 C   0  0  0  0  0  0  0  0  0  0  0  0
    4.7726   -1.2067    0.0000 C   0  0  0  0  0  0  0  0  0  0  0  0
    4.0903   -2.7393    0.0000 O   0  0  0  0  0  0  0  0  0  0  0  0
  1  2  1  0
  3  2  1  6
  3  4  1  0
  4  5  1  0
  5  6  2  0
  5  7  1  0
  7  8  1  1
  7  9  1  0
  9 10  1  6
 11 10  1  1
 11 12  1  0
 12 13  1  0
 13 14  1  6
 13 15  1  0
 15 16  1  0
 13 17  1  0
 17 18  1  6
 17 19  1  0
 19 20  1  0
 20 21  1  0
 20 22  1  0
 22 23  1  0
 23 24  1  0
 17 25  1  0
 25 26  1  6
 25 27  1  0
  9 28  1  0
 28 29  1  1
 28 30  1  0
 30 31  1  6
 32 31  1  1
 32 33  1  0
 33 34  1  0
 34 35  1  1
 34 36  1  0
 36 37  1  0
 37 38  1  1
 38 39  1  0
 38 40  1  0
 37 41  1  0
 41 42  1  6
 30 43  1  0
 43 44  1  6
 43 45  1  0
 43 46  1  0
 46 47  1  0
 47 48  1  6
 47 49  1  0
 49 50  1  0
 50 51  1  0
 51 52  1  1
 51 53  1  0
 53 54  1  6
 53 55  1  0
 55 56  1  6
 55 57  1  0
 55  3  1  0
 27 11  1  0
 41 32  1  0
M  END
>  <ChEMBL_IDs>  (476) 
CHEMBL316326

>  <target_organism>  (476) 
None

>  <target_molecule_pref_name>  (476) 
nan

>  <# Known Targets>  (476) 
nan

>  <Known Targets>  (476) 
nan

>  <smiles>  (476) 
CC[C@H]1OC(=O)[C@H](C)[C@@H](O[C@H]2C[C@@](C)(OC)[C@@](O)(CN(C)CCO)[C@H](C)O2)[C@H](C)[C@@H](O[C@@H]2O[C@H](C)C[C@H](N(C)C)[C@H]2O)[C@](C)(O)C[C@@H](C)CN[C@H](C)[C@@H](O)[C@]1(C)O

$$$$

     RDKit          2D

 63 65  0  0  0  0  0  0  0  0999 V2000
    6.0944   -1.2990    0.0000 C   0  0  0  0  0  0  0  0  0  0  0  0
    5.3444    0.0000    0.0000 C   0  0  0  0  0  0  0  0  0  0  0  0
    3.8444    0.0000    0.0000 C   0  0  0  0  0  0  0  0  0  0  0  0
    3.5517   -1.4712    0.0000 O   0  0  0  0  0  0  0  0  0  0  0  0
    2.7184   -2.7184    0.0000 C   0  0  0  0  0  0  0  0  0  0  0  0
    3.7790   -3.7790    0.0000 O   0  0  0  0  0  0  0  0  0  0  0  0
    1.4712   -3.5517    0.0000 C   0  0  0  0  0  0  0  0  0  0  0  0
   -0.0000   -3.8444    0.0000 C   0  0  0  0  0  0  0  0  0  0  0  0
   -0.0000   -5.3444    0.0000 O   0  0  0  0  0  0  0  0  0  0  0  0
   -1.4712   -3.5517    0.0000 C   0  0  0  0  0  0  0  0  0  0  0  0
   -1.6507   -4.7534    0.0000 C   0  0  0  0  0  0  0  0  0  0  0  0
   -2.7184   -2.7184    0.0000 C   0  0  0  0  0  0  0  0  0  0  0  0
   -3.7790   -3.7790    0.0000 O   0  0  0  0  0  0  0  0  0  0  0  0
   -3.3908   -5.2279    0.0000 C   0  0  0  0  0  0  0  0  0  0  0  0
   -1.9419   -5.6162    0.0000 O   0  0  0  0  0  0  0  0  0  0  0  0
   -1.5537   -7.0650    0.0000 C   0  0  0  0  0  0  0  0  0  0  0  0
   -0.1048   -7.4533    0.0000 C   0  0  0  0  0  0  0  0  0  0  0  0
   -2.6144   -8.1257    0.0000 C   0  0  0  0  0  0  0  0  0  0  0  0
   -2.2261   -9.5746    0.0000 O   0  0  0  0  0  0  0  0  0  0  0  0
   -4.0632   -7.7375    0.0000 C   0  0  0  0  0  0  0  0  0  0  0  0
   -5.1239   -8.7981    0.0000 N   0  0  0  0  0  0  0  0  0  0  0  0
   -6.5728   -8.4099    0.0000 C   0  0  0  0  0  0  0  0  0  0  0  0
   -4.7357  -10.2470    0.0000 C   0  0  0  0  0  0  0  0  0  0  0  0
   -4.4515   -6.2886    0.0000 C   0  0  0  0  0  0  0  0  0  0  0  0
   -5.9004   -5.9004    0.0000 O   0  0  0  0  0  0  0  0  0  0  0  0
   -3.5517   -1.4712    0.0000 C   0  0  0  0  0  0  0  0  0  0  0  0
   -4.9376   -2.0452    0.0000 C   0  0  0  0  0  0  0  0  0  0  0  0
   -6.1276   -1.1321    0.0000 C   0  0  0  0  0  0  0  0  0  0  0  0
   -7.5134   -1.7061    0.0000 O   0  0  0  0  0  0  0  0  0  0  0  0
   -8.7034   -0.7929    0.0000 C   0  0  0  0  0  0  0  0  0  0  0  0
  -10.0893   -1.3670    0.0000 C   0  0  0  0  0  0  0  0  0  0  0  0
  -11.4751   -1.9410    0.0000 F   0  0  0  0  0  0  0  0  0  0  0  0
  -10.6633    0.0189    0.0000 F   0  0  0  0  0  0  0  0  0  0  0  0
   -9.5152   -2.7528    0.0000 F   0  0  0  0  0  0  0  0  0  0  0  0
   -8.5076    0.6942    0.0000 C   0  0  0  0  0  0  0  0  0  0  0  0
   -8.3119    2.1814    0.0000 F   0  0  0  0  0  0  0  0  0  0  0  0
   -9.9948    0.8900    0.0000 F   0  0  0  0  0  0  0  0  0  0  0  0
   -7.0205    0.4984    0.0000 F   0  0  0  0  0  0  0  0  0  0  0  0
   -3.8444    0.0000    0.0000 C   0  0  0  0  0  0  0  0  0  0  0  0
   -3.5517    1.4712    0.0000 C   0  0  0  0  0  0  0  0  0  0  0  0
   -4.9376    2.0452    0.0000 C   0  0  0  0  0  0  0  0  0  0  0  0
   -2.7184    2.7184    0.0000 C   0  0  0  0  0  0  0  0  0  0  0  0
   -3.7790    3.7790    0.0000 O   0  0  0  0  0  0  0  0  0  0  0  0
   -1.4712    3.5517    0.0000 C   0  0  0  0  0  0  0  0  0  0  0  0
    0.0000    3.8444    0.0000 C   0  0  0  0  0  0  0  0  0  0  0  0
    1.4712    3.5517    0.0000 C   0  0  0  0  0  0  0  0  0  0  0  0
    2.0452    4.9376    0.0000 C   0  0  0  0  0  0  0  0  0  0  0  0
    2.7184    2.7184    0.0000 C   0  0  0  0  0  0  0  0  0  0  0  0
    3.5517    1.4712    0.0000 C   0  0  0  0  0  0  0  0  0  0  0  0
    4.9376    2.0452    0.0000 C   0  0  0  0  0  0  0  0  0  0  0  0
    6.1276    1.1321    0.0000 O   0  0  0  0  0  0  0  0  0  0  0  0
    7.5134    1.7061    0.0000 C   0  0  0  0  0  0  0  0  0  0  0  0
    8.7034    0.7929    0.0000 O   0  0  0  0  0  0  0  0  0  0  0  0
   10.0893    1.3670    0.0000 C   0  0  0  0  0  0  0  0  0  0  0  0
   11.2793    0.4538    0.0000 C   0  0  0  0  0  0  0  0  0  0  0  0
   10.2850    2.8541    0.0000 C   0  0  0  0  0  0  0  0  0  0  0  0
   11.6709    3.4282    0.0000 O   0  0  0  0  0  0  0  0  0  0  0  0
    9.0950    3.7673    0.0000 C   0  0  0  0  0  0  0  0  0  0  0  0
    9.2908    5.2544    0.0000 O   0  0  0  0  0  0  0  0  0  0  0  0
    8.1008    6.1676    0.0000 C   0  0  0  0  0  0  0  0  0  0  0  0
    7.7092    3.1933    0.0000 C   0  0  0  0  0  0  0  0  0  0  0  0
    6.5192    4.1064    0.0000 O   0  0  0  0  0  0  0  0  0  0  0  0
    6.7150    5.5936    0.0000 C   0  0  0  0  0  0  0  0  0  0  0  0
  1  2  1  0
  3  2  1  1
  3  4  1  0
  4  5  1  0
  5  6  2  0
  5  7  1  0
  7  8  1  0
  8  9  1  1
  8 10  1  0
 10 11  1  6
 10 12  1  0
 12 13  1  1
 14 13  1  6
 14 15  1  0
 15 16  1  0
 16 17  1  6
 16 18  1  0
 18 19  1  1
 18 20  1  0
 20 21  1  6
 21 22  1  0
 21 23  1  0
 20 24  1  0
 24 25  1  1
 12 26  1  0
 26 27  1  1
 27 28  1  0
 28 29  1  0
 29 30  1  0
 30 31  1  0
 31 32  1  0
 31 33  1  0
 31 34  1  0
 30 35  1  0
 35 36  1  0
 35 37  1  0
 35 38  1  0
 26 39  1  0
 39 40  1  0
 40 41  1  1
 40 42  1  0
 42 43  2  0
 42 44  1  0
 44 45  2  0
 45 46  1  0
 46 47  1  0
 46 48  2  0
 48 49  1  0
 49 50  1  6
 50 51  1  0
 52 51  1  1
 52 53  1  0
 53 54  1  0
 54 55  1  1
 54 56  1  0
 56 57  1  6
 56 58  1  0
 58 59  1  6
 59 60  1  0
 58 61  1  0
 61 62  1  6
 62 63  1  0
 49  3  1  0
 61 52  1  0
 24 14  1  0
M  END
>  <ChEMBL_IDs>  (477) 
CHEMBL295980

>  <target_organism>  (477) 
None

>  <target_molecule_pref_name>  (477) 
nan

>  <# Known Targets>  (477) 
nan

>  <Known Targets>  (477) 
nan

>  <smiles>  (477) 
CC[C@H]1OC(=O)C[C@@H](O)[C@H](C)[C@@H](O[C@@H]2O[C@H](C)[C@@H](O)[C@H](N(C)C)[C@H]2O)[C@@H](CCOC(C(F)(F)F)C(F)(F)F)C[C@@H](C)C(=O)/C=C/C(C)=C/[C@@H]1CO[C@@H]1O[C@H](C)[C@@H](O)[C@@H](OC)[C@H]1OC

$$$$

     RDKit          2D

 58 60  0  0  0  0  0  0  0  0999 V2000
   14.4272  -14.4124    0.0000 C   0  0  0  0  0  0  0  0  0  0  0  0
   13.0414  -13.8383    0.0000 C   0  0  0  0  0  0  0  0  0  0  0  0
   12.8456  -12.3512    0.0000 C   0  0  0  0  0  0  0  0  0  0  0  0
   11.4598  -11.7771    0.0000 C   0  0  0  0  0  0  0  0  0  0  0  0
   10.2698  -12.6903    0.0000 O   0  0  0  0  0  0  0  0  0  0  0  0
   11.2640  -10.2900    0.0000 O   0  0  0  0  0  0  0  0  0  0  0  0
    9.8782   -9.7159    0.0000 C   0  0  0  0  0  0  0  0  0  0  0  0
    9.6824   -8.2288    0.0000 C   0  0  0  0  0  0  0  0  0  0  0  0
   10.8724   -7.3156    0.0000 C   0  0  0  0  0  0  0  0  0  0  0  0
    8.2966   -7.6548    0.0000 O   0  0  0  0  0  0  0  0  0  0  0  0
    7.1065   -8.5679    0.0000 C   0  0  0  0  0  0  0  0  0  0  0  0
    5.7207   -7.9939    0.0000 O   0  0  0  0  0  0  0  0  0  0  0  0
    5.5249   -6.5067    0.0000 C   0  0  0  0  0  0  0  0  0  0  0  0
    4.1391   -5.9327    0.0000 C   0  0  0  0  0  0  0  0  0  0  0  0
    2.9491   -6.8458    0.0000 C   0  0  0  0  0  0  0  0  0  0  0  0
    3.9433   -4.4455    0.0000 O   0  0  0  0  0  0  0  0  0  0  0  0
    5.1333   -3.5324    0.0000 C   0  0  0  0  0  0  0  0  0  0  0  0
    4.9376   -2.0452    0.0000 O   0  0  0  0  0  0  0  0  0  0  0  0
    3.5517   -1.4712    0.0000 C   0  0  0  0  0  0  0  0  0  0  0  0
    3.8444    0.0000    0.0000 C   0  0  0  0  0  0  0  0  0  0  0  0
    5.3444    0.0000    0.0000 C   0  0  0  0  0  0  0  0  0  0  0  0
    6.0944   -1.2990    0.0000 C   0  0  0  0  0  0  0  0  0  0  0  0
    7.5944   -1.2990    0.0000 O   0  0  0  0  0  0  0  0  0  0  0  0
    3.5517    1.4712    0.0000 C   0  0  0  0  0  0  0  0  0  0  0  0
    2.7184    2.7184    0.0000 C   0  0  0  0  0  0  0  0  0  0  0  0
    3.7790    3.7790    0.0000 C   0  0  0  0  0  0  0  0  0  0  0  0
    1.4712    3.5517    0.0000 C   0  0  0  0  0  0  0  0  0  0  0  0
    2.0452    4.9376    0.0000 O   0  0  0  0  0  0  0  0  0  0  0  0
    0.0000    3.8444    0.0000 C   0  0  0  0  0  0  0  0  0  0  0  0
   -1.4712    3.5517    0.0000 C   0  0  0  0  0  0  0  0  0  0  0  0
   -2.7184    2.7184    0.0000 C   0  0  0  0  0  0  0  0  0  0  0  0
   -3.5517    1.4712    0.0000 C   0  0  0  0  0  0  0  0  0  0  0  0
   -3.8444    0.0000    0.0000 C   0  0  0  0  0  0  0  0  0  0  0  0
   -3.5517   -1.4712    0.0000 C   0  0  0  0  0  0  0  0  0  0  0  0
   -4.9376   -2.0452    0.0000 C   0  0  0  0  0  0  0  0  0  0  0  0
   -2.7184   -2.7184    0.0000 O   0  0  0  0  0  0  0  0  0  0  0  0
   -1.4712   -3.5517    0.0000 C   0  0  0  0  0  0  0  0  0  0  0  0
   -2.0452   -4.9376    0.0000 O   0  0  0  0  0  0  0  0  0  0  0  0
   -0.0000   -3.8444    0.0000 C   0  0  0  0  0  0  0  0  0  0  0  0
    1.4712   -3.5517    0.0000 C   0  0  0  0  0  0  0  0  0  0  0  0
    2.0452   -4.9376    0.0000 O   0  0  0  0  0  0  0  0  0  0  0  0
    1.1321   -6.1276    0.0000 C   0  0  0  0  0  0  0  0  0  0  0  0
    1.7061   -7.5134    0.0000 O   0  0  0  0  0  0  0  0  0  0  0  0
   -0.3551   -5.9318    0.0000 C   0  0  0  0  0  0  0  0  0  0  0  0
   -1.2682   -7.1218    0.0000 C   0  0  0  0  0  0  0  0  0  0  0  0
    2.7184   -2.7184    0.0000 C   0  0  0  0  0  0  0  0  0  0  0  0
    3.7790   -3.7790    0.0000 O   0  0  0  0  0  0  0  0  0  0  0  0
    3.3908   -5.2279    0.0000 C   0  0  0  0  0  0  0  0  0  0  0  0
    6.5192   -4.1064    0.0000 C   0  0  0  0  0  0  0  0  0  0  0  0
    7.7092   -3.1933    0.0000 O   0  0  0  0  0  0  0  0  0  0  0  0
    6.7150   -5.5936    0.0000 C   0  0  0  0  0  0  0  0  0  0  0  0
    8.1008   -6.1676    0.0000 N   0  0  0  0  0  0  0  0  0  0  0  0
    8.6506   -7.5632    0.0000 C   0  0  0  0  0  0  0  0  0  0  0  0
    9.2908   -5.2544    0.0000 C   0  0  0  0  0  0  0  0  0  0  0  0
    7.3023  -10.0551    0.0000 C   0  0  0  0  0  0  0  0  0  0  0  0
    8.6881  -10.6291    0.0000 C   0  0  0  0  0  0  0  0  0  0  0  0
    7.8822  -11.8942    0.0000 C   0  0  0  0  0  0  0  0  0  0  0  0
    9.7941  -11.6425    0.0000 O   0  0  0  0  0  0  0  0  0  0  0  0
  1  2  1  0
  2  3  1  0
  3  4  1  0
  4  5  2  0
  4  6  1  0
  6  7  1  0
  7  8  1  0
  8  9  1  0
  8 10  1  0
 10 11  1  0
 11 12  1  0
 12 13  1  0
 13 14  1  0
 14 15  1  0
 14 16  1  0
 16 17  1  0
 17 18  1  0
 18 19  1  0
 19 20  1  0
 20 21  1  0
 21 22  1  0
 22 23  2  0
 20 24  1  0
 24 25  1  0
 25 26  1  0
 25 27  1  0
 27 28  2  0
 27 29  1  0
 29 30  2  0
 30 31  1  0
 31 32  2  0
 32 33  1  0
 33 34  1  0
 34 35  1  0
 34 36  1  0
 36 37  1  0
 37 38  2  0
 37 39  1  0
 39 40  1  0
 40 41  1  0
 41 42  1  0
 42 43  2  0
 42 44  1  0
 44 45  1  0
 40 46  1  0
 46 47  1  0
 47 48  1  0
 17 49  1  0
 49 50  1  0
 49 51  1  0
 51 52  1  0
 52 53  1  0
 52 54  1  0
 11 55  1  0
 55 56  1  0
 56 57  1  0
 56 58  1  0
 56  7  1  0
 51 13  1  0
 46 19  1  0
M  END
>  <ChEMBL_IDs>  (478) 
nan

>  <target_organism>  (478) 
nan

>  <target_molecule_pref_name>  (478) 
nan

>  <# Known Targets>  (478) 
nan

>  <Known Targets>  (478) 
nan

>  <smiles>  (478) 
CCCC(=O)OC1C(C)OC(OC2C(C)OC(OC3C(CC=O)CC(C)C(=O)/C=C\C=C/CC(C)OC(=O)CC(OC(=O)CC)C3OC)C(O)C2N(C)C)CC1(C)O

$$$$

     RDKit          2D

 58 60  0  0  0  0  0  0  0  0999 V2000
   14.4272  -14.4124    0.0000 C   0  0  0  0  0  0  0  0  0  0  0  0
   13.0414  -13.8383    0.0000 C   0  0  0  0  0  0  0  0  0  0  0  0
   12.8456  -12.3512    0.0000 C   0  0  0  0  0  0  0  0  0  0  0  0
   11.4598  -11.7771    0.0000 C   0  0  0  0  0  0  0  0  0  0  0  0
   10.2698  -12.6903    0.0000 O   0  0  0  0  0  0  0  0  0  0  0  0
   11.2640  -10.2900    0.0000 O   0  0  0  0  0  0  0  0  0  0  0  0
    9.8782   -9.7159    0.0000 C   0  0  0  0  0  0  0  0  0  0  0  0
    9.6824   -8.2288    0.0000 C   0  0  0  0  0  0  0  0  0  0  0  0
   10.8724   -7.3156    0.0000 C   0  0  0  0  0  0  0  0  0  0  0  0
    8.2966   -7.6548    0.0000 O   0  0  0  0  0  0  0  0  0  0  0  0
    7.1065   -8.5679    0.0000 C   0  0  0  0  0  0  0  0  0  0  0  0
    5.7207   -7.9939    0.0000 O   0  0  0  0  0  0  0  0  0  0  0  0
    5.5249   -6.5067    0.0000 C   0  0  0  0  0  0  0  0  0  0  0  0
    4.1391   -5.9327    0.0000 C   0  0  0  0  0  0  0  0  0  0  0  0
    2.9491   -6.8458    0.0000 C   0  0  0  0  0  0  0  0  0  0  0  0
    3.9433   -4.4455    0.0000 O   0  0  0  0  0  0  0  0  0  0  0  0
    5.1333   -3.5324    0.0000 C   0  0  0  0  0  0  0  0  0  0  0  0
    4.9376   -2.0452    0.0000 O   0  0  0  0  0  0  0  0  0  0  0  0
    3.5517   -1.4712    0.0000 C   0  0  0  0  0  0  0  0  0  0  0  0
    3.8444    0.0000    0.0000 C   0  0  0  0  0  0  0  0  0  0  0  0
    5.3444    0.0000    0.0000 C   0  0  0  0  0  0  0  0  0  0  0  0
    6.0944   -1.2990    0.0000 C   0  0  0  0  0  0  0  0  0  0  0  0
    7.5944   -1.2990    0.0000 O   0  0  0  0  0  0  0  0  0  0  0  0
    3.5517    1.4712    0.0000 C   0  0  0  0  0  0  0  0  0  0  0  0
    2.7184    2.7184    0.0000 C   0  0  0  0  0  0  0  0  0  0  0  0
    3.7790    3.7790    0.0000 C   0  0  0  0  0  0  0  0  0  0  0  0
    1.4712    3.5517    0.0000 C   0  0  0  0  0  0  0  0  0  0  0  0
    2.0452    4.9376    0.0000 O   0  0  0  0  0  0  0  0  0  0  0  0
    0.0000    3.8444    0.0000 C   0  0  0  0  0  0  0  0  0  0  0  0
   -1.4712    3.5517    0.0000 C   0  0  0  0  0  0  0  0  0  0  0  0
   -2.7184    2.7184    0.0000 C   0  0  0  0  0  0  0  0  0  0  0  0
   -3.5517    1.4712    0.0000 C   0  0  0  0  0  0  0  0  0  0  0  0
   -3.8444    0.0000    0.0000 C   0  0  0  0  0  0  0  0  0  0  0  0
   -3.5517   -1.4712    0.0000 C   0  0  0  0  0  0  0  0  0  0  0  0
   -4.9376   -2.0452    0.0000 C   0  0  0  0  0  0  0  0  0  0  0  0
   -2.7184   -2.7184    0.0000 O   0  0  0  0  0  0  0  0  0  0  0  0
   -1.4712   -3.5517    0.0000 C   0  0  0  0  0  0  0  0  0  0  0  0
   -2.0452   -4.9376    0.0000 O   0  0  0  0  0  0  0  0  0  0  0  0
   -0.0000   -3.8444    0.0000 C   0  0  0  0  0  0  0  0  0  0  0  0
    1.4712   -3.5517    0.0000 C   0  0  0  0  0  0  0  0  0  0  0  0
    2.0452   -4.9376    0.0000 O   0  0  0  0  0  0  0  0  0  0  0  0
    1.1321   -6.1276    0.0000 C   0  0  0  0  0  0  0  0  0  0  0  0
    1.7061   -7.5134    0.0000 O   0  0  0  0  0  0  0  0  0  0  0  0
   -0.3551   -5.9318    0.0000 C   0  0  0  0  0  0  0  0  0  0  0  0
   -1.2682   -7.1218    0.0000 C   0  0  0  0  0  0  0  0  0  0  0  0
    2.7184   -2.7184    0.0000 C   0  0  0  0  0  0  0  0  0  0  0  0
    3.7790   -3.7790    0.0000 O   0  0  0  0  0  0  0  0  0  0  0  0
    3.3908   -5.2279    0.0000 C   0  0  0  0  0  0  0  0  0  0  0  0
    6.5192   -4.1064    0.0000 C   0  0  0  0  0  0  0  0  0  0  0  0
    7.7092   -3.1933    0.0000 O   0  0  0  0  0  0  0  0  0  0  0  0
    6.7150   -5.5936    0.0000 C   0  0  0  0  0  0  0  0  0  0  0  0
    8.1008   -6.1676    0.0000 N   0  0  0  0  0  0  0  0  0  0  0  0
    8.6506   -7.5632    0.0000 C   0  0  0  0  0  0  0  0  0  0  0  0
    9.2908   -5.2544    0.0000 C   0  0  0  0  0  0  0  0  0  0  0  0
    7.3023  -10.0551    0.0000 C   0  0  0  0  0  0  0  0  0  0  0  0
    8.6881  -10.6291    0.0000 C   0  0  0  0  0  0  0  0  0  0  0  0
    7.8822  -11.8942    0.0000 C   0  0  0  0  0  0  0  0  0  0  0  0
    9.7941  -11.6425    0.0000 O   0  0  0  0  0  0  0  0  0  0  0  0
  1  2  1  0
  2  3  1  0
  3  4  1  0
  4  5  2  0
  4  6  1  0
  6  7  1  0
  7  8  1  0
  8  9  1  0
  8 10  1  0
 10 11  1  0
 11 12  1  0
 12 13  1  0
 13 14  1  0
 14 15  1  0
 14 16  1  0
 16 17  1  0
 17 18  1  0
 18 19  1  0
 19 20  1  0
 20 21  1  0
 21 22  1  0
 22 23  2  0
 20 24  1  0
 24 25  1  0
 25 26  1  0
 25 27  1  0
 27 28  2  0
 27 29  1  0
 29 30  2  0
 30 31  1  0
 31 32  2  0
 32 33  1  0
 33 34  1  0
 34 35  1  0
 34 36  1  0
 36 37  1  0
 37 38  2  0
 37 39  1  0
 39 40  1  0
 40 41  1  0
 41 42  1  0
 42 43  2  0
 42 44  1  0
 44 45  1  0
 40 46  1  0
 46 47  1  0
 47 48  1  0
 17 49  1  0
 49 50  1  0
 49 51  1  0
 51 52  1  0
 52 53  1  0
 52 54  1  0
 11 55  1  0
 55 56  1  0
 56 57  1  0
 56 58  1  0
 56  7  1  0
 51 13  1  0
 46 19  1  0
M  END
>  <ChEMBL_IDs>  (479) 
nan

>  <target_organism>  (479) 
nan

>  <target_molecule_pref_name>  (479) 
nan

>  <# Known Targets>  (479) 
nan

>  <Known Targets>  (479) 
nan

>  <smiles>  (479) 
CCCC(=O)OC1C(C)OC(OC2C(C)OC(OC3C(CC=O)CC(C)C(=O)/C=C\C=C/CC(C)OC(=O)CC(OC(=O)CC)C3OC)C(O)C2N(C)C)CC1(C)O

$$$$

     RDKit          2D

 58 60  0  0  0  0  0  0  0  0999 V2000
   14.4272  -14.4124    0.0000 C   0  0  0  0  0  0  0  0  0  0  0  0
   13.0414  -13.8383    0.0000 C   0  0  0  0  0  0  0  0  0  0  0  0
   12.8456  -12.3512    0.0000 C   0  0  0  0  0  0  0  0  0  0  0  0
   11.4598  -11.7771    0.0000 C   0  0  0  0  0  0  0  0  0  0  0  0
   10.2698  -12.6903    0.0000 O   0  0  0  0  0  0  0  0  0  0  0  0
   11.2640  -10.2900    0.0000 O   0  0  0  0  0  0  0  0  0  0  0  0
    9.8782   -9.7159    0.0000 C   0  0  0  0  0  0  0  0  0  0  0  0
    9.6824   -8.2288    0.0000 C   0  0  0  0  0  0  0  0  0  0  0  0
   10.8724   -7.3156    0.0000 C   0  0  0  0  0  0  0  0  0  0  0  0
    8.2966   -7.6548    0.0000 O   0  0  0  0  0  0  0  0  0  0  0  0
    7.1065   -8.5679    0.0000 C   0  0  0  0  0  0  0  0  0  0  0  0
    5.7207   -7.9939    0.0000 O   0  0  0  0  0  0  0  0  0  0  0  0
    5.5249   -6.5067    0.0000 C   0  0  0  0  0  0  0  0  0  0  0  0
    4.1391   -5.9327    0.0000 C   0  0  0  0  0  0  0  0  0  0  0  0
    2.9491   -6.8458    0.0000 C   0  0  0  0  0  0  0  0  0  0  0  0
    3.9433   -4.4455    0.0000 O   0  0  0  0  0  0  0  0  0  0  0  0
    5.1333   -3.5324    0.0000 C   0  0  0  0  0  0  0  0  0  0  0  0
    4.9376   -2.0452    0.0000 O   0  0  0  0  0  0  0  0  0  0  0  0
    3.5517   -1.4712    0.0000 C   0  0  0  0  0  0  0  0  0  0  0  0
    3.8444    0.0000    0.0000 C   0  0  0  0  0  0  0  0  0  0  0  0
    5.3444    0.0000    0.0000 C   0  0  0  0  0  0  0  0  0  0  0  0
    6.0944   -1.2990    0.0000 C   0  0  0  0  0  0  0  0  0  0  0  0
    7.5944   -1.2990    0.0000 O   0  0  0  0  0  0  0  0  0  0  0  0
    3.5517    1.4712    0.0000 C   0  0  0  0  0  0  0  0  0  0  0  0
    2.7184    2.7184    0.0000 C   0  0  0  0  0  0  0  0  0  0  0  0
    3.7790    3.7790    0.0000 C   0  0  0  0  0  0  0  0  0  0  0  0
    1.4712    3.5517    0.0000 C   0  0  0  0  0  0  0  0  0  0  0  0
    2.0452    4.9376    0.0000 O   0  0  0  0  0  0  0  0  0  0  0  0
    0.0000    3.8444    0.0000 C   0  0  0  0  0  0  0  0  0  0  0  0
   -1.4712    3.5517    0.0000 C   0  0  0  0  0  0  0  0  0  0  0  0
   -2.7184    2.7184    0.0000 C   0  0  0  0  0  0  0  0  0  0  0  0
   -3.5517    1.4712    0.0000 C   0  0  0  0  0  0  0  0  0  0  0  0
   -3.8444    0.0000    0.0000 C   0  0  0  0  0  0  0  0  0  0  0  0
   -3.5517   -1.4712    0.0000 C   0  0  0  0  0  0  0  0  0  0  0  0
   -4.9376   -2.0452    0.0000 C   0  0  0  0  0  0  0  0  0  0  0  0
   -2.7184   -2.7184    0.0000 O   0  0  0  0  0  0  0  0  0  0  0  0
   -1.4712   -3.5517    0.0000 C   0  0  0  0  0  0  0  0  0  0  0  0
   -2.0452   -4.9376    0.0000 O   0  0  0  0  0  0  0  0  0  0  0  0
   -0.0000   -3.8444    0.0000 C   0  0  0  0  0  0  0  0  0  0  0  0
    1.4712   -3.5517    0.0000 C   0  0  0  0  0  0  0  0  0  0  0  0
    2.0452   -4.9376    0.0000 O   0  0  0  0  0  0  0  0  0  0  0  0
    1.1321   -6.1276    0.0000 C   0  0  0  0  0  0  0  0  0  0  0  0
    1.7061   -7.5134    0.0000 O   0  0  0  0  0  0  0  0  0  0  0  0
   -0.3551   -5.9318    0.0000 C   0  0  0  0  0  0  0  0  0  0  0  0
   -1.2682   -7.1218    0.0000 C   0  0  0  0  0  0  0  0  0  0  0  0
    2.7184   -2.7184    0.0000 C   0  0  0  0  0  0  0  0  0  0  0  0
    3.7790   -3.7790    0.0000 O   0  0  0  0  0  0  0  0  0  0  0  0
    3.3908   -5.2279    0.0000 C   0  0  0  0  0  0  0  0  0  0  0  0
    6.5192   -4.1064    0.0000 C   0  0  0  0  0  0  0  0  0  0  0  0
    7.7092   -3.1933    0.0000 O   0  0  0  0  0  0  0  0  0  0  0  0
    6.7150   -5.5936    0.0000 C   0  0  0  0  0  0  0  0  0  0  0  0
    8.1008   -6.1676    0.0000 N   0  0  0  0  0  0  0  0  0  0  0  0
    8.6506   -7.5632    0.0000 C   0  0  0  0  0  0  0  0  0  0  0  0
    9.2908   -5.2544    0.0000 C   0  0  0  0  0  0  0  0  0  0  0  0
    7.3023  -10.0551    0.0000 C   0  0  0  0  0  0  0  0  0  0  0  0
    8.6881  -10.6291    0.0000 C   0  0  0  0  0  0  0  0  0  0  0  0
    7.8822  -11.8942    0.0000 C   0  0  0  0  0  0  0  0  0  0  0  0
    9.7941  -11.6425    0.0000 O   0  0  0  0  0  0  0  0  0  0  0  0
  1  2  1  0
  2  3  1  0
  3  4  1  0
  4  5  2  0
  4  6  1  0
  6  7  1  0
  7  8  1  0
  8  9  1  0
  8 10  1  0
 10 11  1  0
 11 12  1  0
 12 13  1  0
 13 14  1  0
 14 15  1  0
 14 16  1  0
 16 17  1  0
 17 18  1  0
 18 19  1  0
 19 20  1  0
 20 21  1  0
 21 22  1  0
 22 23  2  0
 20 24  1  0
 24 25  1  0
 25 26  1  0
 25 27  1  0
 27 28  2  0
 27 29  1  0
 29 30  2  0
 30 31  1  0
 31 32  2  0
 32 33  1  0
 33 34  1  0
 34 35  1  0
 34 36  1  0
 36 37  1  0
 37 38  2  0
 37 39  1  0
 39 40  1  0
 40 41  1  0
 41 42  1  0
 42 43  2  0
 42 44  1  0
 44 45  1  0
 40 46  1  0
 46 47  1  0
 47 48  1  0
 17 49  1  0
 49 50  1  0
 49 51  1  0
 51 52  1  0
 52 53  1  0
 52 54  1  0
 11 55  1  0
 55 56  1  0
 56 57  1  0
 56 58  1  0
 56  7  1  0
 51 13  1  0
 46 19  1  0
M  END
>  <ChEMBL_IDs>  (480) 
nan

>  <target_organism>  (480) 
nan

>  <target_molecule_pref_name>  (480) 
nan

>  <# Known Targets>  (480) 
nan

>  <Known Targets>  (480) 
nan

>  <smiles>  (480) 
CCCC(=O)OC1C(C)OC(OC2C(C)OC(OC3C(CC=O)CC(C)C(=O)/C=C\C=C/CC(C)OC(=O)CC(OC(=O)CC)C3OC)C(O)C2N(C)C)CC1(C)O

$$$$

     RDKit          2D

 58 60  0  0  0  0  0  0  0  0999 V2000
    6.0944   -1.2990    0.0000 C   0  0  0  0  0  0  0  0  0  0  0  0
    5.3444    0.0000    0.0000 O   0  0  0  0  0  0  0  0  0  0  0  0
    3.8444    0.0000    0.0000 C   0  0  0  0  0  0  0  0  0  0  0  0
    3.5517   -1.4712    0.0000 C   0  0  0  0  0  0  0  0  0  0  0  0
    4.9376   -2.0452    0.0000 O   0  0  0  0  0  0  0  0  0  0  0  0
    5.1333   -3.5324    0.0000 C   0  0  0  0  0  0  0  0  0  0  0  0
    3.9433   -4.4455    0.0000 O   0  0  0  0  0  0  0  0  0  0  0  0
    4.1391   -5.9327    0.0000 C   0  0  0  0  0  0  0  0  0  0  0  0
    2.9491   -6.8458    0.0000 C   0  0  0  0  0  0  0  0  0  0  0  0
    5.5249   -6.5067    0.0000 C   0  0  0  0  0  0  0  0  0  0  0  0
    5.7207   -7.9939    0.0000 O   0  0  0  0  0  0  0  0  0  0  0  0
    4.5307   -8.9070    0.0000 C   0  0  0  0  0  0  0  0  0  0  0  0
    3.1449   -8.3330    0.0000 C   0  0  0  0  0  0  0  0  0  0  0  0
    1.9548   -9.2461    0.0000 C   0  0  0  0  0  0  0  0  0  0  0  0
    0.5243   -9.6972    0.0000 C   0  0  0  0  0  0  0  0  0  0  0  0
    1.2622   -7.9156    0.0000 O   0  0  0  0  0  0  0  0  0  0  0  0
    2.1506  -10.7333    0.0000 C   0  0  0  0  0  0  0  0  0  0  0  0
    0.9606  -11.6464    0.0000 O   0  0  0  0  0  0  0  0  0  0  0  0
    1.1564  -13.1336    0.0000 C   0  0  0  0  0  0  0  0  0  0  0  0
    2.5422  -13.7076    0.0000 O   0  0  0  0  0  0  0  0  0  0  0  0
   -0.0336  -14.0468    0.0000 C   0  0  0  0  0  0  0  0  0  0  0  0
    0.1621  -15.5339    0.0000 C   0  0  0  0  0  0  0  0  0  0  0  0
   -1.0279  -16.4471    0.0000 C   0  0  0  0  0  0  0  0  0  0  0  0
    1.5480  -16.1079    0.0000 C   0  0  0  0  0  0  0  0  0  0  0  0
    3.5364  -11.3073    0.0000 C   0  0  0  0  0  0  0  0  0  0  0  0
    3.7322  -12.7945    0.0000 C   0  0  0  0  0  0  0  0  0  0  0  0
    4.7265  -10.3942    0.0000 O   0  0  0  0  0  0  0  0  0  0  0  0
    6.7150   -5.5936    0.0000 C   0  0  0  0  0  0  0  0  0  0  0  0
    8.1008   -6.1676    0.0000 N   0  0  0  0  0  0  0  0  0  0  0  0
    8.2966   -7.6548    0.0000 C   0  0  0  0  0  0  0  0  0  0  0  0
    9.2908   -5.2544    0.0000 C   0  0  0  0  0  0  0  0  0  0  0  0
    6.5192   -4.1064    0.0000 C   0  0  0  0  0  0  0  0  0  0  0  0
    7.7092   -3.1933    0.0000 O   0  0  0  0  0  0  0  0  0  0  0  0
    2.7184   -2.7184    0.0000 C   0  0  0  0  0  0  0  0  0  0  0  0
    3.7790   -3.7790    0.0000 C   0  0  0  0  0  0  0  0  0  0  0  0
    3.3908   -5.2279    0.0000 C   0  0  0  0  0  0  0  0  0  0  0  0
    4.1633   -6.5137    0.0000 O   0  0  0  0  0  0  0  0  0  0  0  0
    1.4712   -3.5517    0.0000 C   0  0  0  0  0  0  0  0  0  0  0  0
   -0.0000   -3.8444    0.0000 C   0  0  0  0  0  0  0  0  0  0  0  0
   -0.0000   -5.3444    0.0000 C   0  0  0  0  0  0  0  0  0  0  0  0
   -1.4712   -3.5517    0.0000 C   0  0  0  0  0  0  0  0  0  0  0  0
   -2.0452   -4.9376    0.0000 O   0  0  0  0  0  0  0  0  0  0  0  0
   -2.7184   -2.7184    0.0000 C   0  0  0  0  0  0  0  0  0  0  0  0
   -3.5517   -1.4712    0.0000 C   0  0  0  0  0  0  0  0  0  0  0  0
   -3.8444    0.0000    0.0000 C   0  0  0  0  0  0  0  0  0  0  0  0
   -3.5517    1.4712    0.0000 C   0  0  0  0  0  0  0  0  0  0  0  0
   -2.7184    2.7184    0.0000 C   0  0  0  0  0  0  0  0  0  0  0  0
   -1.4712    3.5517    0.0000 C   0  0  0  0  0  0  0  0  0  0  0  0
   -2.0452    4.9376    0.0000 C   0  0  0  0  0  0  0  0  0  0  0  0
    0.0000    3.8444    0.0000 O   0  0  0  0  0  0  0  0  0  0  0  0
    1.4712    3.5517    0.0000 C   0  0  0  0  0  0  0  0  0  0  0  0
    2.0452    4.9376    0.0000 O   0  0  0  0  0  0  0  0  0  0  0  0
    2.7184    2.7184    0.0000 C   0  0  0  0  0  0  0  0  0  0  0  0
    3.5517    1.4712    0.0000 C   0  0  0  0  0  0  0  0  0  0  0  0
    4.9376    2.0452    0.0000 O   0  0  0  0  0  0  0  0  0  0  0  0
    6.1276    1.1321    0.0000 C   0  0  0  0  0  0  0  0  0  0  0  0
    7.5134    1.7061    0.0000 C   0  0  0  0  0  0  0  0  0  0  0  0
    6.2975   -0.3583    0.0000 O   0  0  0  0  0  0  0  0  0  0  0  0
  1  2  1  0
  3  2  1  6
  3  4  1  0
  4  5  1  1
  6  5  1  1
  6  7  1  0
  7  8  1  0
  8  9  1  1
  8 10  1  0
 10 11  1  6
 12 11  1  6
 12 13  1  0
 13 14  1  0
 14 15  1  1
 14 16  1  0
 14 17  1  0
 17 18  1  6
 18 19  1  0
 19 20  2  0
 19 21  1  0
 21 22  1  0
 22 23  1  0
 22 24  1  0
 17 25  1  0
 25 26  1  6
 25 27  1  0
 10 28  1  0
 28 29  1  6
 29 30  1  0
 29 31  1  0
 28 32  1  0
 32 33  1  6
  4 34  1  0
 34 35  1  1
 35 36  1  0
 36 37  2  0
 34 38  1  0
 38 39  1  0
 39 40  1  1
 39 41  1  0
 41 42  2  0
 41 43  1  0
 43 44  2  0
 44 45  1  0
 45 46  2  0
 46 47  1  0
 47 48  1  0
 48 49  1  1
 48 50  1  0
 50 51  1  0
 51 52  2  0
 51 53  1  0
 53 54  1  0
 54 55  1  1
 55 56  1  0
 56 57  1  0
 56 58  2  0
 54  3  1  0
 32  6  1  0
 27 12  1  0
M  END
>  <ChEMBL_IDs>  (481) 
CHEMBL3085400

>  <target_organism>  (481) 
None

>  <target_molecule_pref_name>  (481) 
nan

>  <# Known Targets>  (481) 
nan

>  <Known Targets>  (481) 
nan

>  <smiles>  (481) 
CO[C@@H]1[C@@H](O[C@@H]2O[C@H](C)[C@@H](O[C@H]3C[C@@](C)(O)[C@@H](OC(=O)CC(C)C)[C@@H](C)O3)[C@@H](N(C)C)[C@H]2O)[C@@H](CC=O)C[C@@H](C)C(=O)/C=C/C=C/C[C@@H](C)OC(=O)C[C@H]1OC(C)=O

$$$$

     RDKit          2D

 58 60  0  0  0  0  0  0  0  0999 V2000
    6.0944   -1.2990    0.0000 C   0  0  0  0  0  0  0  0  0  0  0  0
    5.3444    0.0000    0.0000 O   0  0  0  0  0  0  0  0  0  0  0  0
    3.8444    0.0000    0.0000 C   0  0  0  0  0  0  0  0  0  0  0  0
    3.5517   -1.4712    0.0000 C   0  0  0  0  0  0  0  0  0  0  0  0
    4.9376   -2.0452    0.0000 O   0  0  0  0  0  0  0  0  0  0  0  0
    5.1333   -3.5324    0.0000 C   0  0  0  0  0  0  0  0  0  0  0  0
    3.9433   -4.4455    0.0000 O   0  0  0  0  0  0  0  0  0  0  0  0
    4.1391   -5.9327    0.0000 C   0  0  0  0  0  0  0  0  0  0  0  0
    2.9491   -6.8458    0.0000 C   0  0  0  0  0  0  0  0  0  0  0  0
    5.5249   -6.5067    0.0000 C   0  0  0  0  0  0  0  0  0  0  0  0
    5.7207   -7.9939    0.0000 O   0  0  0  0  0  0  0  0  0  0  0  0
    4.5307   -8.9070    0.0000 C   0  0  0  0  0  0  0  0  0  0  0  0
    3.1449   -8.3330    0.0000 C   0  0  0  0  0  0  0  0  0  0  0  0
    1.9548   -9.2461    0.0000 C   0  0  0  0  0  0  0  0  0  0  0  0
    0.5243   -9.6972    0.0000 C   0  0  0  0  0  0  0  0  0  0  0  0
    1.2622   -7.9156    0.0000 O   0  0  0  0  0  0  0  0  0  0  0  0
    2.1506  -10.7333    0.0000 C   0  0  0  0  0  0  0  0  0  0  0  0
    0.9606  -11.6464    0.0000 O   0  0  0  0  0  0  0  0  0  0  0  0
    1.1564  -13.1336    0.0000 C   0  0  0  0  0  0  0  0  0  0  0  0
    2.5422  -13.7076    0.0000 O   0  0  0  0  0  0  0  0  0  0  0  0
   -0.0336  -14.0468    0.0000 C   0  0  0  0  0  0  0  0  0  0  0  0
    0.1621  -15.5339    0.0000 C   0  0  0  0  0  0  0  0  0  0  0  0
   -1.0279  -16.4471    0.0000 C   0  0  0  0  0  0  0  0  0  0  0  0
    1.5480  -16.1079    0.0000 C   0  0  0  0  0  0  0  0  0  0  0  0
    3.5364  -11.3073    0.0000 C   0  0  0  0  0  0  0  0  0  0  0  0
    3.7322  -12.7945    0.0000 C   0  0  0  0  0  0  0  0  0  0  0  0
    4.7265  -10.3942    0.0000 O   0  0  0  0  0  0  0  0  0  0  0  0
    6.7150   -5.5936    0.0000 C   0  0  0  0  0  0  0  0  0  0  0  0
    8.1008   -6.1676    0.0000 N   0  0  0  0  0  0  0  0  0  0  0  0
    8.2966   -7.6548    0.0000 C   0  0  0  0  0  0  0  0  0  0  0  0
    9.2908   -5.2544    0.0000 C   0  0  0  0  0  0  0  0  0  0  0  0
    6.5192   -4.1064    0.0000 C   0  0  0  0  0  0  0  0  0  0  0  0
    7.7092   -3.1933    0.0000 O   0  0  0  0  0  0  0  0  0  0  0  0
    2.7184   -2.7184    0.0000 C   0  0  0  0  0  0  0  0  0  0  0  0
    3.7790   -3.7790    0.0000 C   0  0  0  0  0  0  0  0  0  0  0  0
    3.3908   -5.2279    0.0000 C   0  0  0  0  0  0  0  0  0  0  0  0
    4.1633   -6.5137    0.0000 O   0  0  0  0  0  0  0  0  0  0  0  0
    1.4712   -3.5517    0.0000 C   0  0  0  0  0  0  0  0  0  0  0  0
   -0.0000   -3.8444    0.0000 C   0  0  0  0  0  0  0  0  0  0  0  0
   -0.0000   -5.3444    0.0000 C   0  0  0  0  0  0  0  0  0  0  0  0
   -1.4712   -3.5517    0.0000 C   0  0  0  0  0  0  0  0  0  0  0  0
   -2.0452   -4.9376    0.0000 O   0  0  0  0  0  0  0  0  0  0  0  0
   -2.7184   -2.7184    0.0000 C   0  0  0  0  0  0  0  0  0  0  0  0
   -3.5517   -1.4712    0.0000 C   0  0  0  0  0  0  0  0  0  0  0  0
   -3.8444    0.0000    0.0000 C   0  0  0  0  0  0  0  0  0  0  0  0
   -3.5517    1.4712    0.0000 C   0  0  0  0  0  0  0  0  0  0  0  0
   -2.7184    2.7184    0.0000 C   0  0  0  0  0  0  0  0  0  0  0  0
   -1.4712    3.5517    0.0000 C   0  0  0  0  0  0  0  0  0  0  0  0
   -2.0452    4.9376    0.0000 C   0  0  0  0  0  0  0  0  0  0  0  0
    0.0000    3.8444    0.0000 O   0  0  0  0  0  0  0  0  0  0  0  0
    1.4712    3.5517    0.0000 C   0  0  0  0  0  0  0  0  0  0  0  0
    2.0452    4.9376    0.0000 O   0  0  0  0  0  0  0  0  0  0  0  0
    2.7184    2.7184    0.0000 C   0  0  0  0  0  0  0  0  0  0  0  0
    3.5517    1.4712    0.0000 C   0  0  0  0  0  0  0  0  0  0  0  0
    4.9376    2.0452    0.0000 O   0  0  0  0  0  0  0  0  0  0  0  0
    6.1276    1.1321    0.0000 C   0  0  0  0  0  0  0  0  0  0  0  0
    7.5134    1.7061    0.0000 C   0  0  0  0  0  0  0  0  0  0  0  0
    6.2975   -0.3583    0.0000 O   0  0  0  0  0  0  0  0  0  0  0  0
  1  2  1  0
  3  2  1  6
  3  4  1  0
  4  5  1  1
  5  6  1  0
  6  7  1  0
  7  8  1  0
  8  9  1  0
  8 10  1  0
 10 11  1  0
 11 12  1  0
 12 13  1  0
 13 14  1  0
 14 15  1  0
 14 16  1  0
 14 17  1  0
 17 18  1  0
 18 19  1  0
 19 20  2  0
 19 21  1  0
 21 22  1  0
 22 23  1  0
 22 24  1  0
 17 25  1  0
 25 26  1  0
 25 27  1  0
 10 28  1  0
 28 29  1  0
 29 30  1  0
 29 31  1  0
 28 32  1  0
 32 33  1  0
  4 34  1  0
 34 35  1  1
 35 36  1  0
 36 37  2  0
 34 38  1  0
 38 39  1  0
 39 40  1  1
 39 41  1  0
 41 42  2  0
 41 43  1  0
 43 44  2  0
 44 45  1  0
 45 46  2  0
 46 47  1  0
 47 48  1  0
 48 49  1  1
 48 50  1  0
 50 51  1  0
 51 52  2  0
 51 53  1  0
 53 54  1  0
 54 55  1  1
 55 56  1  0
 56 57  1  0
 56 58  2  0
 54  3  1  0
 32  6  1  0
 27 12  1  0
M  END
>  <ChEMBL_IDs>  (482) 
CHEMBL418520

>  <target_organism>  (482) 
Rattus norvegicus

>  <target_molecule_pref_name>  (482) 
nan

>  <# Known Targets>  (482) 
nan

>  <Known Targets>  (482) 
nan

>  <smiles>  (482) 
CO[C@@H]1[C@@H](OC2OC(C)C(OC3CC(C)(O)C(OC(=O)CC(C)C)C(C)O3)C(N(C)C)C2O)[C@@H](CC=O)C[C@@H](C)C(=O)/C=C/C=C/C[C@@H](C)OC(=O)C[C@H]1OC(C)=O

$$$$

     RDKit          2D

 58 60  0  0  0  0  0  0  0  0999 V2000
    6.0944   -1.2990    0.0000 C   0  0  0  0  0  0  0  0  0  0  0  0
    5.3444   -0.0000    0.0000 O   0  0  0  0  0  0  0  0  0  0  0  0
    3.8444   -0.0000    0.0000 C   0  0  0  0  0  0  0  0  0  0  0  0
    3.5517   -1.4712    0.0000 C   0  0  0  0  0  0  0  0  0  0  0  0
    4.9376   -2.0452    0.0000 O   0  0  0  0  0  0  0  0  0  0  0  0
    5.1333   -3.5324    0.0000 C   0  0  0  0  0  0  0  0  0  0  0  0
    6.5192   -4.1064    0.0000 C   0  0  0  0  0  0  0  0  0  0  0  0
    3.9433   -4.4455    0.0000 O   0  0  0  0  0  0  0  0  0  0  0  0
    2.7184   -2.7184    0.0000 C   0  0  0  0  0  0  0  0  0  0  0  0
    1.4712   -3.5517    0.0000 C   0  0  0  0  0  0  0  0  0  0  0  0
    2.0452   -4.9376    0.0000 O   0  0  0  0  0  0  0  0  0  0  0  0
   -0.0000   -3.8444    0.0000 O   0  0  0  0  0  0  0  0  0  0  0  0
   -1.4712   -3.5517    0.0000 C   0  0  0  0  0  0  0  0  0  0  0  0
   -2.0452   -4.9376    0.0000 C   0  0  0  0  0  0  0  0  0  0  0  0
   -2.7184   -2.7184    0.0000 C   0  0  0  0  0  0  0  0  0  0  0  0
   -3.5517   -1.4712    0.0000 C   0  0  0  0  0  0  0  0  0  0  0  0
   -3.8444    0.0000    0.0000 C   0  0  0  0  0  0  0  0  0  0  0  0
   -3.5517    1.4712    0.0000 C   0  0  0  0  0  0  0  0  0  0  0  0
   -2.7184    2.7184    0.0000 C   0  0  0  0  0  0  0  0  0  0  0  0
   -1.4712    3.5517    0.0000 C   0  0  0  0  0  0  0  0  0  0  0  0
   -2.0452    4.9376    0.0000 O   0  0  0  0  0  0  0  0  0  0  0  0
   -0.0000    3.8444    0.0000 C   0  0  0  0  0  0  0  0  0  0  0  0
    0.0000    5.3444    0.0000 C   0  0  0  0  0  0  0  0  0  0  0  0
    1.4712    3.5517    0.0000 C   0  0  0  0  0  0  0  0  0  0  0  0
    2.7184    2.7184    0.0000 C   0  0  0  0  0  0  0  0  0  0  0  0
    3.7790    3.7790    0.0000 C   0  0  0  0  0  0  0  0  0  0  0  0
    5.2279    3.3908    0.0000 C   0  0  0  0  0  0  0  0  0  0  0  0
    6.2886    4.4515    0.0000 O   0  0  0  0  0  0  0  0  0  0  0  0
    3.5517    1.4712    0.0000 C   0  0  0  0  0  0  0  0  0  0  0  0
    4.9376    2.0452    0.0000 O   0  0  0  0  0  0  0  0  0  0  0  0
    6.1276    1.1321    0.0000 C   0  0  0  0  0  0  0  0  0  0  0  0
    5.9318   -0.3551    0.0000 O   0  0  0  0  0  0  0  0  0  0  0  0
    7.1218   -1.2682    0.0000 C   0  0  0  0  0  0  0  0  0  0  0  0
    6.9260   -2.7554    0.0000 C   0  0  0  0  0  0  0  0  0  0  0  0
    8.5076   -0.6942    0.0000 C   0  0  0  0  0  0  0  0  0  0  0  0
    9.6977   -1.6074    0.0000 O   0  0  0  0  0  0  0  0  0  0  0  0
   11.0835   -1.0333    0.0000 C   0  0  0  0  0  0  0  0  0  0  0  0
   12.2735   -1.9465    0.0000 C   0  0  0  0  0  0  0  0  0  0  0  0
   13.6593   -1.3725    0.0000 C   0  0  0  0  0  0  0  0  0  0  0  0
   15.1579   -1.3070    0.0000 C   0  0  0  0  0  0  0  0  0  0  0  0
   13.9840   -2.8369    0.0000 O   0  0  0  0  0  0  0  0  0  0  0  0
   13.8551    0.1147    0.0000 C   0  0  0  0  0  0  0  0  0  0  0  0
   15.2410    0.6887    0.0000 O   0  0  0  0  0  0  0  0  0  0  0  0
   15.4367    2.1759    0.0000 C   0  0  0  0  0  0  0  0  0  0  0  0
   14.2467    3.0890    0.0000 O   0  0  0  0  0  0  0  0  0  0  0  0
   16.8226    2.7499    0.0000 C   0  0  0  0  0  0  0  0  0  0  0  0
   17.0184    4.2371    0.0000 C   0  0  0  0  0  0  0  0  0  0  0  0
   18.4042    4.8111    0.0000 C   0  0  0  0  0  0  0  0  0  0  0  0
   15.8283    5.1502    0.0000 C   0  0  0  0  0  0  0  0  0  0  0  0
   12.6651    1.0279    0.0000 C   0  0  0  0  0  0  0  0  0  0  0  0
   12.8609    2.5150    0.0000 C   0  0  0  0  0  0  0  0  0  0  0  0
   11.2793    0.4538    0.0000 O   0  0  0  0  0  0  0  0  0  0  0  0
    8.7034    0.7929    0.0000 C   0  0  0  0  0  0  0  0  0  0  0  0
   10.0893    1.3670    0.0000 N   0  0  0  0  0  0  0  0  0  0  0  0
   10.2850    2.8541    0.0000 C   0  0  0  0  0  0  0  0  0  0  0  0
   11.4649    0.7689    0.0000 C   0  0  0  0  0  0  0  0  0  0  0  0
    7.5134    1.7061    0.0000 C   0  0  0  0  0  0  0  0  0  0  0  0
    7.7092    3.1933    0.0000 O   0  0  0  0  0  0  0  0  0  0  0  0
  1  2  1  0
  2  3  1  0
  3  4  1  0
  4  5  1  0
  5  6  1  0
  6  7  1  0
  6  8  2  0
  4  9  1  0
  9 10  1  0
 10 11  2  0
 10 12  1  0
 12 13  1  0
 13 14  1  0
 13 15  1  0
 15 16  1  0
 16 17  2  0
 17 18  1  0
 18 19  2  0
 19 20  1  0
 20 21  2  0
 20 22  1  0
 22 23  1  0
 22 24  1  0
 24 25  1  0
 25 26  1  0
 26 27  1  0
 27 28  2  0
 25 29  1  0
 29 30  1  0
 30 31  1  0
 31 32  1  0
 32 33  1  0
 33 34  1  0
 33 35  1  0
 35 36  1  0
 36 37  1  0
 37 38  1  0
 38 39  1  0
 39 40  1  0
 39 41  1  0
 39 42  1  0
 42 43  1  0
 43 44  1  0
 44 45  2  0
 44 46  1  0
 46 47  1  0
 47 48  1  0
 47 49  1  0
 42 50  1  0
 50 51  1  0
 50 52  1  0
 35 53  1  0
 53 54  1  0
 54 55  1  0
 54 56  1  0
 53 57  1  0
 57 58  1  0
 29  3  1  0
 57 31  1  0
 52 37  1  0
M  END
>  <ChEMBL_IDs>  (483) 
nan

>  <target_organism>  (483) 
nan

>  <target_molecule_pref_name>  (483) 
nan

>  <# Known Targets>  (483) 
nan

>  <Known Targets>  (483) 
nan

>  <smiles>  (483) 
COC1C(OC(C)=O)CC(=O)OC(C)C/C=C\C=C/C(=O)C(C)CC(CC=O)C1OC1OC(C)C(OC2CC(C)(O)C(OC(=O)CC(C)C)C(C)O2)C(N(C)C)C1O

$$$$

     RDKit          2D

 58 60  0  0  0  0  0  0  0  0999 V2000
    6.0944   -1.2990    0.0000 C   0  0  0  0  0  0  0  0  0  0  0  0
    5.3444   -0.0000    0.0000 O   0  0  0  0  0  0  0  0  0  0  0  0
    3.8444   -0.0000    0.0000 C   0  0  0  0  0  0  0  0  0  0  0  0
    3.5517   -1.4712    0.0000 C   0  0  0  0  0  0  0  0  0  0  0  0
    4.9376   -2.0452    0.0000 O   0  0  0  0  0  0  0  0  0  0  0  0
    5.1333   -3.5324    0.0000 C   0  0  0  0  0  0  0  0  0  0  0  0
    6.5192   -4.1064    0.0000 C   0  0  0  0  0  0  0  0  0  0  0  0
    3.9433   -4.4455    0.0000 O   0  0  0  0  0  0  0  0  0  0  0  0
    2.7184   -2.7184    0.0000 C   0  0  0  0  0  0  0  0  0  0  0  0
    1.4712   -3.5517    0.0000 C   0  0  0  0  0  0  0  0  0  0  0  0
    2.0452   -4.9376    0.0000 O   0  0  0  0  0  0  0  0  0  0  0  0
   -0.0000   -3.8444    0.0000 O   0  0  0  0  0  0  0  0  0  0  0  0
   -1.4712   -3.5517    0.0000 C   0  0  0  0  0  0  0  0  0  0  0  0
   -2.0452   -4.9376    0.0000 C   0  0  0  0  0  0  0  0  0  0  0  0
   -2.7184   -2.7184    0.0000 C   0  0  0  0  0  0  0  0  0  0  0  0
   -3.5517   -1.4712    0.0000 C   0  0  0  0  0  0  0  0  0  0  0  0
   -3.8444    0.0000    0.0000 C   0  0  0  0  0  0  0  0  0  0  0  0
   -3.5517    1.4712    0.0000 C   0  0  0  0  0  0  0  0  0  0  0  0
   -2.7184    2.7184    0.0000 C   0  0  0  0  0  0  0  0  0  0  0  0
   -1.4712    3.5517    0.0000 C   0  0  0  0  0  0  0  0  0  0  0  0
   -2.0452    4.9376    0.0000 O   0  0  0  0  0  0  0  0  0  0  0  0
   -0.0000    3.8444    0.0000 C   0  0  0  0  0  0  0  0  0  0  0  0
    0.0000    5.3444    0.0000 C   0  0  0  0  0  0  0  0  0  0  0  0
    1.4712    3.5517    0.0000 C   0  0  0  0  0  0  0  0  0  0  0  0
    2.7184    2.7184    0.0000 C   0  0  0  0  0  0  0  0  0  0  0  0
    3.7790    3.7790    0.0000 C   0  0  0  0  0  0  0  0  0  0  0  0
    5.2279    3.3908    0.0000 C   0  0  0  0  0  0  0  0  0  0  0  0
    6.2886    4.4515    0.0000 O   0  0  0  0  0  0  0  0  0  0  0  0
    3.5517    1.4712    0.0000 C   0  0  0  0  0  0  0  0  0  0  0  0
    4.9376    2.0452    0.0000 O   0  0  0  0  0  0  0  0  0  0  0  0
    6.1276    1.1321    0.0000 C   0  0  0  0  0  0  0  0  0  0  0  0
    5.9318   -0.3551    0.0000 O   0  0  0  0  0  0  0  0  0  0  0  0
    7.1218   -1.2682    0.0000 C   0  0  0  0  0  0  0  0  0  0  0  0
    6.9260   -2.7554    0.0000 C   0  0  0  0  0  0  0  0  0  0  0  0
    8.5076   -0.6942    0.0000 C   0  0  0  0  0  0  0  0  0  0  0  0
    9.6977   -1.6074    0.0000 O   0  0  0  0  0  0  0  0  0  0  0  0
   11.0835   -1.0333    0.0000 C   0  0  0  0  0  0  0  0  0  0  0  0
   12.2735   -1.9465    0.0000 C   0  0  0  0  0  0  0  0  0  0  0  0
   13.6593   -1.3725    0.0000 C   0  0  0  0  0  0  0  0  0  0  0  0
   15.1579   -1.3070    0.0000 C   0  0  0  0  0  0  0  0  0  0  0  0
   13.9840   -2.8369    0.0000 O   0  0  0  0  0  0  0  0  0  0  0  0
   13.8551    0.1147    0.0000 C   0  0  0  0  0  0  0  0  0  0  0  0
   15.2410    0.6887    0.0000 O   0  0  0  0  0  0  0  0  0  0  0  0
   15.4367    2.1759    0.0000 C   0  0  0  0  0  0  0  0  0  0  0  0
   14.2467    3.0890    0.0000 O   0  0  0  0  0  0  0  0  0  0  0  0
   16.8226    2.7499    0.0000 C   0  0  0  0  0  0  0  0  0  0  0  0
   17.0184    4.2371    0.0000 C   0  0  0  0  0  0  0  0  0  0  0  0
   18.4042    4.8111    0.0000 C   0  0  0  0  0  0  0  0  0  0  0  0
   15.8283    5.1502    0.0000 C   0  0  0  0  0  0  0  0  0  0  0  0
   12.6651    1.0279    0.0000 C   0  0  0  0  0  0  0  0  0  0  0  0
   12.8609    2.5150    0.0000 C   0  0  0  0  0  0  0  0  0  0  0  0
   11.2793    0.4538    0.0000 O   0  0  0  0  0  0  0  0  0  0  0  0
    8.7034    0.7929    0.0000 C   0  0  0  0  0  0  0  0  0  0  0  0
   10.0893    1.3670    0.0000 N   0  0  0  0  0  0  0  0  0  0  0  0
   10.2850    2.8541    0.0000 C   0  0  0  0  0  0  0  0  0  0  0  0
   11.4649    0.7689    0.0000 C   0  0  0  0  0  0  0  0  0  0  0  0
    7.5134    1.7061    0.0000 C   0  0  0  0  0  0  0  0  0  0  0  0
    7.7092    3.1933    0.0000 O   0  0  0  0  0  0  0  0  0  0  0  0
  1  2  1  0
  2  3  1  0
  3  4  1  0
  4  5  1  0
  5  6  1  0
  6  7  1  0
  6  8  2  0
  4  9  1  0
  9 10  1  0
 10 11  2  0
 10 12  1  0
 12 13  1  0
 13 14  1  0
 13 15  1  0
 15 16  1  0
 16 17  2  0
 17 18  1  0
 18 19  2  0
 19 20  1  0
 20 21  2  0
 20 22  1  0
 22 23  1  0
 22 24  1  0
 24 25  1  0
 25 26  1  0
 26 27  1  0
 27 28  2  0
 25 29  1  0
 29 30  1  0
 30 31  1  0
 31 32  1  0
 32 33  1  0
 33 34  1  0
 33 35  1  0
 35 36  1  0
 36 37  1  0
 37 38  1  0
 38 39  1  0
 39 40  1  0
 39 41  1  0
 39 42  1  0
 42 43  1  0
 43 44  1  0
 44 45  2  0
 44 46  1  0
 46 47  1  0
 47 48  1  0
 47 49  1  0
 42 50  1  0
 50 51  1  0
 50 52  1  0
 35 53  1  0
 53 54  1  0
 54 55  1  0
 54 56  1  0
 53 57  1  0
 57 58  1  0
 29  3  1  0
 57 31  1  0
 52 37  1  0
M  END
>  <ChEMBL_IDs>  (484) 
nan

>  <target_organism>  (484) 
nan

>  <target_molecule_pref_name>  (484) 
nan

>  <# Known Targets>  (484) 
nan

>  <Known Targets>  (484) 
nan

>  <smiles>  (484) 
COC1C(OC(C)=O)CC(=O)OC(C)C/C=C\C=C/C(=O)C(C)CC(CC=O)C1OC1OC(C)C(OC2CC(C)(O)C(OC(=O)CC(C)C)C(C)O2)C(N(C)C)C1O

$$$$

     RDKit          2D

 58 60  0  0  0  0  0  0  0  0999 V2000
    6.0944   -1.2990    0.0000 C   0  0  0  0  0  0  0  0  0  0  0  0
    5.3444   -0.0000    0.0000 O   0  0  0  0  0  0  0  0  0  0  0  0
    3.8444   -0.0000    0.0000 C   0  0  0  0  0  0  0  0  0  0  0  0
    3.5517   -1.4712    0.0000 C   0  0  0  0  0  0  0  0  0  0  0  0
    4.9376   -2.0452    0.0000 O   0  0  0  0  0  0  0  0  0  0  0  0
    5.1333   -3.5324    0.0000 C   0  0  0  0  0  0  0  0  0  0  0  0
    6.5192   -4.1064    0.0000 C   0  0  0  0  0  0  0  0  0  0  0  0
    3.9433   -4.4455    0.0000 O   0  0  0  0  0  0  0  0  0  0  0  0
    2.7184   -2.7184    0.0000 C   0  0  0  0  0  0  0  0  0  0  0  0
    1.4712   -3.5517    0.0000 C   0  0  0  0  0  0  0  0  0  0  0  0
    2.0452   -4.9376    0.0000 O   0  0  0  0  0  0  0  0  0  0  0  0
   -0.0000   -3.8444    0.0000 O   0  0  0  0  0  0  0  0  0  0  0  0
   -1.4712   -3.5517    0.0000 C   0  0  0  0  0  0  0  0  0  0  0  0
   -2.0452   -4.9376    0.0000 C   0  0  0  0  0  0  0  0  0  0  0  0
   -2.7184   -2.7184    0.0000 C   0  0  0  0  0  0  0  0  0  0  0  0
   -3.5517   -1.4712    0.0000 C   0  0  0  0  0  0  0  0  0  0  0  0
   -3.8444    0.0000    0.0000 C   0  0  0  0  0  0  0  0  0  0  0  0
   -3.5517    1.4712    0.0000 C   0  0  0  0  0  0  0  0  0  0  0  0
   -2.7184    2.7184    0.0000 C   0  0  0  0  0  0  0  0  0  0  0  0
   -1.4712    3.5517    0.0000 C   0  0  0  0  0  0  0  0  0  0  0  0
   -2.0452    4.9376    0.0000 O   0  0  0  0  0  0  0  0  0  0  0  0
   -0.0000    3.8444    0.0000 C   0  0  0  0  0  0  0  0  0  0  0  0
    0.0000    5.3444    0.0000 C   0  0  0  0  0  0  0  0  0  0  0  0
    1.4712    3.5517    0.0000 C   0  0  0  0  0  0  0  0  0  0  0  0
    2.7184    2.7184    0.0000 C   0  0  0  0  0  0  0  0  0  0  0  0
    3.7790    3.7790    0.0000 C   0  0  0  0  0  0  0  0  0  0  0  0
    5.2279    3.3908    0.0000 C   0  0  0  0  0  0  0  0  0  0  0  0
    6.2886    4.4515    0.0000 O   0  0  0  0  0  0  0  0  0  0  0  0
    3.5517    1.4712    0.0000 C   0  0  0  0  0  0  0  0  0  0  0  0
    4.9376    2.0452    0.0000 O   0  0  0  0  0  0  0  0  0  0  0  0
    6.1276    1.1321    0.0000 C   0  0  0  0  0  0  0  0  0  0  0  0
    5.9318   -0.3551    0.0000 O   0  0  0  0  0  0  0  0  0  0  0  0
    7.1218   -1.2682    0.0000 C   0  0  0  0  0  0  0  0  0  0  0  0
    6.9260   -2.7554    0.0000 C   0  0  0  0  0  0  0  0  0  0  0  0
    8.5076   -0.6942    0.0000 C   0  0  0  0  0  0  0  0  0  0  0  0
    9.6977   -1.6074    0.0000 O   0  0  0  0  0  0  0  0  0  0  0  0
   11.0835   -1.0333    0.0000 C   0  0  0  0  0  0  0  0  0  0  0  0
   12.2735   -1.9465    0.0000 C   0  0  0  0  0  0  0  0  0  0  0  0
   13.6593   -1.3725    0.0000 C   0  0  0  0  0  0  0  0  0  0  0  0
   15.1579   -1.3070    0.0000 C   0  0  0  0  0  0  0  0  0  0  0  0
   13.9840   -2.8369    0.0000 O   0  0  0  0  0  0  0  0  0  0  0  0
   13.8551    0.1147    0.0000 C   0  0  0  0  0  0  0  0  0  0  0  0
   15.2410    0.6887    0.0000 O   0  0  0  0  0  0  0  0  0  0  0  0
   15.4367    2.1759    0.0000 C   0  0  0  0  0  0  0  0  0  0  0  0
   14.2467    3.0890    0.0000 O   0  0  0  0  0  0  0  0  0  0  0  0
   16.8226    2.7499    0.0000 C   0  0  0  0  0  0  0  0  0  0  0  0
   17.0184    4.2371    0.0000 C   0  0  0  0  0  0  0  0  0  0  0  0
   18.4042    4.8111    0.0000 C   0  0  0  0  0  0  0  0  0  0  0  0
   15.8283    5.1502    0.0000 C   0  0  0  0  0  0  0  0  0  0  0  0
   12.6651    1.0279    0.0000 C   0  0  0  0  0  0  0  0  0  0  0  0
   12.8609    2.5150    0.0000 C   0  0  0  0  0  0  0  0  0  0  0  0
   11.2793    0.4538    0.0000 O   0  0  0  0  0  0  0  0  0  0  0  0
    8.7034    0.7929    0.0000 C   0  0  0  0  0  0  0  0  0  0  0  0
   10.0893    1.3670    0.0000 N   0  0  0  0  0  0  0  0  0  0  0  0
   10.2850    2.8541    0.0000 C   0  0  0  0  0  0  0  0  0  0  0  0
   11.4649    0.7689    0.0000 C   0  0  0  0  0  0  0  0  0  0  0  0
    7.5134    1.7061    0.0000 C   0  0  0  0  0  0  0  0  0  0  0  0
    7.7092    3.1933    0.0000 O   0  0  0  0  0  0  0  0  0  0  0  0
  1  2  1  0
  2  3  1  0
  3  4  1  0
  4  5  1  0
  5  6  1  0
  6  7  1  0
  6  8  2  0
  4  9  1  0
  9 10  1  0
 10 11  2  0
 10 12  1  0
 12 13  1  0
 13 14  1  0
 13 15  1  0
 15 16  1  0
 16 17  2  0
 17 18  1  0
 18 19  2  0
 19 20  1  0
 20 21  2  0
 20 22  1  0
 22 23  1  0
 22 24  1  0
 24 25  1  0
 25 26  1  0
 26 27  1  0
 27 28  2  0
 25 29  1  0
 29 30  1  0
 30 31  1  0
 31 32  1  0
 32 33  1  0
 33 34  1  0
 33 35  1  0
 35 36  1  0
 36 37  1  0
 37 38  1  0
 38 39  1  0
 39 40  1  0
 39 41  1  0
 39 42  1  0
 42 43  1  0
 43 44  1  0
 44 45  2  0
 44 46  1  0
 46 47  1  0
 47 48  1  0
 47 49  1  0
 42 50  1  0
 50 51  1  0
 50 52  1  0
 35 53  1  0
 53 54  1  0
 54 55  1  0
 54 56  1  0
 53 57  1  0
 57 58  1  0
 29  3  1  0
 57 31  1  0
 52 37  1  0
M  END
>  <ChEMBL_IDs>  (485) 
nan

>  <target_organism>  (485) 
nan

>  <target_molecule_pref_name>  (485) 
nan

>  <# Known Targets>  (485) 
nan

>  <Known Targets>  (485) 
nan

>  <smiles>  (485) 
COC1C(OC(C)=O)CC(=O)OC(C)C/C=C\C=C/C(=O)C(C)CC(CC=O)C1OC1OC(C)C(OC2CC(C)(O)C(OC(=O)CC(C)C)C(C)O2)C(N(C)C)C1O

$$$$

     RDKit          2D

 57 59  0  0  0  0  0  0  0  0999 V2000
   13.6593    1.3725    0.0000 C   0  0  0  0  0  0  0  0  0  0  0  0
   12.2735    1.9465    0.0000 C   0  0  0  0  0  0  0  0  0  0  0  0
   11.0835    1.0333    0.0000 C   0  0  0  0  0  0  0  0  0  0  0  0
    9.6977    1.6074    0.0000 O   0  0  0  0  0  0  0  0  0  0  0  0
    8.5076    0.6942    0.0000 C   0  0  0  0  0  0  0  0  0  0  0  0
    7.1218    1.2682    0.0000 C   0  0  0  0  0  0  0  0  0  0  0  0
    6.9260    2.7554    0.0000 C   0  0  0  0  0  0  0  0  0  0  0  0
    5.9318    0.3551    0.0000 O   0  0  0  0  0  0  0  0  0  0  0  0
    6.1276   -1.1321    0.0000 C   0  0  0  0  0  0  0  0  0  0  0  0
    4.9376   -2.0452    0.0000 O   0  0  0  0  0  0  0  0  0  0  0  0
    3.5517   -1.4712    0.0000 C   0  0  0  0  0  0  0  0  0  0  0  0
    3.8444    0.0000    0.0000 C   0  0  0  0  0  0  0  0  0  0  0  0
    5.0233    0.2940    0.0000 C   0  0  0  0  0  0  0  0  0  0  0  0
    3.5517    1.4712    0.0000 C   0  0  0  0  0  0  0  0  0  0  0  0
    4.9376    2.0452    0.0000 O   0  0  0  0  0  0  0  0  0  0  0  0
    2.7184    2.7184    0.0000 C   0  0  0  0  0  0  0  0  0  0  0  0
    1.4712    3.5517    0.0000 C   0  0  0  0  0  0  0  0  0  0  0  0
    2.0452    4.9376    0.0000 O   0  0  0  0  0  0  0  0  0  0  0  0
    0.0000    3.8444    0.0000 O   0  0  0  0  0  0  0  0  0  0  0  0
   -1.4712    3.5517    0.0000 C   0  0  0  0  0  0  0  0  0  0  0  0
   -2.0452    4.9376    0.0000 C   0  0  0  0  0  0  0  0  0  0  0  0
   -1.1321    6.1276    0.0000 C   0  0  0  0  0  0  0  0  0  0  0  0
   -2.7184    2.7184    0.0000 C   0  0  0  0  0  0  0  0  0  0  0  0
   -3.7790    3.7790    0.0000 C   0  0  0  0  0  0  0  0  0  0  0  0
   -3.3908    5.2279    0.0000 O   0  0  0  0  0  0  0  0  0  0  0  0
   -4.4515    6.2886    0.0000 C   0  0  0  0  0  0  0  0  0  0  0  0
   -4.0632    7.7375    0.0000 O   0  0  0  0  0  0  0  0  0  0  0  0
   -5.1239    8.7981    0.0000 C   0  0  0  0  0  0  0  0  0  0  0  0
   -4.7357   10.2470    0.0000 C   0  0  0  0  0  0  0  0  0  0  0  0
   -6.5728    8.4099    0.0000 C   0  0  0  0  0  0  0  0  0  0  0  0
   -7.6335    9.4706    0.0000 O   0  0  0  0  0  0  0  0  0  0  0  0
   -6.9610    6.9610    0.0000 C   0  0  0  0  0  0  0  0  0  0  0  0
   -8.4099    6.5728    0.0000 O   0  0  0  0  0  0  0  0  0  0  0  0
   -8.7981    5.1239    0.0000 C   0  0  0  0  0  0  0  0  0  0  0  0
   -5.9004    5.9004    0.0000 C   0  0  0  0  0  0  0  0  0  0  0  0
   -6.2886    4.4515    0.0000 O   0  0  0  0  0  0  0  0  0  0  0  0
   -7.7375    4.0632    0.0000 C   0  0  0  0  0  0  0  0  0  0  0  0
   -3.5517    1.4712    0.0000 C   0  0  0  0  0  0  0  0  0  0  0  0
   -3.8444    0.0000    0.0000 C   0  0  0  0  0  0  0  0  0  0  0  0
   -5.3444    0.0000    0.0000 C   0  0  0  0  0  0  0  0  0  0  0  0
   -3.5517   -1.4712    0.0000 C   0  0  0  0  0  0  0  0  0  0  0  0
   -2.7184   -2.7184    0.0000 C   0  0  0  0  0  0  0  0  0  0  0  0
   -1.4712   -3.5517    0.0000 C   0  0  0  0  0  0  0  0  0  0  0  0
   -2.0452   -4.9376    0.0000 O   0  0  0  0  0  0  0  0  0  0  0  0
   -0.0000   -3.8444    0.0000 C   0  0  0  0  0  0  0  0  0  0  0  0
   -0.0000   -5.3444    0.0000 C   0  0  0  0  0  0  0  0  0  0  0  0
    1.4712   -3.5517    0.0000 C   0  0  0  0  0  0  0  0  0  0  0  0
    2.7184   -2.7184    0.0000 C   0  0  0  0  0  0  0  0  0  0  0  0
    3.7790   -3.7790    0.0000 C   0  0  0  0  0  0  0  0  0  0  0  0
    3.3908   -5.2279    0.0000 C   0  0  0  0  0  0  0  0  0  0  0  0
    4.4515   -6.2886    0.0000 O   0  0  0  0  0  0  0  0  0  0  0  0
    7.5134   -1.7061    0.0000 C   0  0  0  0  0  0  0  0  0  0  0  0
    7.7092   -3.1933    0.0000 O   0  0  0  0  0  0  0  0  0  0  0  0
    8.7034   -0.7929    0.0000 C   0  0  0  0  0  0  0  0  0  0  0  0
   10.0893   -1.3670    0.0000 N   0  0  0  0  0  0  0  0  0  0  0  0
   11.2793   -0.4538    0.0000 C   0  0  0  0  0  0  0  0  0  0  0  0
   10.2850   -2.8541    0.0000 C   0  0  0  0  0  0  0  0  0  0  0  0
  1  2  2  0
  2  3  1  0
  3  4  1  0
  5  4  1  1
  5  6  1  0
  6  7  1  6
  6  8  1  0
  8  9  1  0
  9 10  1  6
 11 10  1  1
 11 12  1  0
 12 13  1  6
 12 14  1  0
 14 15  1  1
 14 16  1  0
 16 17  1  0
 17 18  2  0
 17 19  1  0
 19 20  1  0
 20 21  1  1
 21 22  1  0
 20 23  1  0
 23 24  1  6
 24 25  1  0
 26 25  1  1
 26 27  1  0
 27 28  1  0
 28 29  1  1
 28 30  1  0
 30 31  1  6
 30 32  1  0
 32 33  1  6
 33 34  1  0
 32 35  1  0
 35 36  1  6
 36 37  1  0
 23 38  1  0
 38 39  2  0
 39 40  1  0
 39 41  1  0
 41 42  2  0
 42 43  1  0
 43 44  2  0
 43 45  1  0
 45 46  1  1
 45 47  1  0
 47 48  1  0
 48 49  1  1
 49 50  1  0
 50 51  2  0
  9 52  1  0
 52 53  1  1
 52 54  1  0
 54 55  1  6
 55 56  1  0
 55 57  1  0
 54  5  1  0
 48 11  1  0
 35 26  1  0
M  END
>  <ChEMBL_IDs>  (486) 
CHEMBL319595

>  <target_organism>  (486) 
None

>  <target_molecule_pref_name>  (486) 
nan

>  <# Known Targets>  (486) 
nan

>  <Known Targets>  (486) 
nan

>  <smiles>  (486) 
C=CCO[C@@H]1[C@@H](C)O[C@@H](O[C@@H]2[C@@H](C)[C@H](O)CC(=O)O[C@H](CC)[C@@H](CO[C@@H]3O[C@H](C)[C@@H](O)[C@@H](OC)[C@H]3OC)/C=C(C)/C=C/C(=O)[C@H](C)C[C@@H]2CC=O)[C@H](O)[C@H]1N(C)C

$$$$

     RDKit          2D

 57 59  0  0  0  0  0  0  0  0999 V2000
    6.0944   -1.2990    0.0000 C   0  0  0  0  0  0  0  0  0  0  0  0
    5.3444    0.0000    0.0000 C   0  0  0  0  0  0  0  0  0  0  0  0
    3.8444    0.0000    0.0000 C   0  0  0  0  0  0  0  0  0  0  0  0
    3.5517   -1.4712    0.0000 O   0  0  0  0  0  0  0  0  0  0  0  0
    2.7184   -2.7184    0.0000 C   0  0  0  0  0  0  0  0  0  0  0  0
    3.7790   -3.7790    0.0000 O   0  0  0  0  0  0  0  0  0  0  0  0
    1.4712   -3.5517    0.0000 C   0  0  0  0  0  0  0  0  0  0  0  0
   -0.0000   -3.8444    0.0000 C   0  0  0  0  0  0  0  0  0  0  0  0
   -0.0000   -5.3444    0.0000 O   0  0  0  0  0  0  0  0  0  0  0  0
   -1.4712   -3.5517    0.0000 C   0  0  0  0  0  0  0  0  0  0  0  0
   -1.6507   -4.7534    0.0000 C   0  0  0  0  0  0  0  0  0  0  0  0
   -2.7184   -2.7184    0.0000 C   0  0  0  0  0  0  0  0  0  0  0  0
   -3.7790   -3.7790    0.0000 O   0  0  0  0  0  0  0  0  0  0  0  0
   -3.3908   -5.2279    0.0000 C   0  0  0  0  0  0  0  0  0  0  0  0
   -1.9419   -5.6162    0.0000 O   0  0  0  0  0  0  0  0  0  0  0  0
   -1.5537   -7.0650    0.0000 C   0  0  0  0  0  0  0  0  0  0  0  0
   -0.1048   -7.4533    0.0000 C   0  0  0  0  0  0  0  0  0  0  0  0
   -2.6144   -8.1257    0.0000 C   0  0  0  0  0  0  0  0  0  0  0  0
   -2.2261   -9.5746    0.0000 O   0  0  0  0  0  0  0  0  0  0  0  0
   -4.0632   -7.7375    0.0000 C   0  0  0  0  0  0  0  0  0  0  0  0
   -5.1239   -8.7981    0.0000 N   0  0  0  0  0  0  0  0  0  0  0  0
   -6.5728   -8.4099    0.0000 C   0  0  0  0  0  0  0  0  0  0  0  0
   -4.7357  -10.2470    0.0000 C   0  0  0  0  0  0  0  0  0  0  0  0
   -4.4515   -6.2886    0.0000 C   0  0  0  0  0  0  0  0  0  0  0  0
   -5.9004   -5.9004    0.0000 O   0  0  0  0  0  0  0  0  0  0  0  0
   -3.5517   -1.4712    0.0000 C   0  0  0  0  0  0  0  0  0  0  0  0
   -4.9376   -2.0452    0.0000 C   0  0  0  0  0  0  0  0  0  0  0  0
   -6.1276   -1.1321    0.0000 C   0  0  0  0  0  0  0  0  0  0  0  0
   -7.5134   -1.7061    0.0000 C   0  0  0  0  0  0  0  0  0  0  0  0
   -8.7034   -0.7929    0.0000 C   0  0  0  0  0  0  0  0  0  0  0  0
  -10.0893   -1.3670    0.0000 C   0  0  0  0  0  0  0  0  0  0  0  0
   -8.5076    0.6942    0.0000 O   0  0  0  0  0  0  0  0  0  0  0  0
   -3.8444    0.0000    0.0000 C   0  0  0  0  0  0  0  0  0  0  0  0
   -3.5517    1.4712    0.0000 C   0  0  0  0  0  0  0  0  0  0  0  0
   -4.9376    2.0452    0.0000 C   0  0  0  0  0  0  0  0  0  0  0  0
   -2.7184    2.7184    0.0000 C   0  0  0  0  0  0  0  0  0  0  0  0
   -3.7790    3.7790    0.0000 O   0  0  0  0  0  0  0  0  0  0  0  0
   -1.4712    3.5517    0.0000 C   0  0  0  0  0  0  0  0  0  0  0  0
    0.0000    3.8444    0.0000 C   0  0  0  0  0  0  0  0  0  0  0  0
    1.4712    3.5517    0.0000 C   0  0  0  0  0  0  0  0  0  0  0  0
    2.0452    4.9376    0.0000 C   0  0  0  0  0  0  0  0  0  0  0  0
    2.7184    2.7184    0.0000 C   0  0  0  0  0  0  0  0  0  0  0  0
    3.5517    1.4712    0.0000 C   0  0  0  0  0  0  0  0  0  0  0  0
    4.9376    2.0452    0.0000 C   0  0  0  0  0  0  0  0  0  0  0  0
    6.1276    1.1321    0.0000 O   0  0  0  0  0  0  0  0  0  0  0  0
    7.5134    1.7061    0.0000 C   0  0  0  0  0  0  0  0  0  0  0  0
    8.7034    0.7929    0.0000 O   0  0  0  0  0  0  0  0  0  0  0  0
   10.0893    1.3670    0.0000 C   0  0  0  0  0  0  0  0  0  0  0  0
   11.2793    0.4538    0.0000 C   0  0  0  0  0  0  0  0  0  0  0  0
   10.2850    2.8541    0.0000 C   0  0  0  0  0  0  0  0  0  0  0  0
   11.6709    3.4282    0.0000 O   0  0  0  0  0  0  0  0  0  0  0  0
    9.0950    3.7673    0.0000 C   0  0  0  0  0  0  0  0  0  0  0  0
    9.2908    5.2544    0.0000 O   0  0  0  0  0  0  0  0  0  0  0  0
    8.1008    6.1676    0.0000 C   0  0  0  0  0  0  0  0  0  0  0  0
    7.7092    3.1933    0.0000 C   0  0  0  0  0  0  0  0  0  0  0  0
    6.5192    4.1064    0.0000 O   0  0  0  0  0  0  0  0  0  0  0  0
    6.7150    5.5936    0.0000 C   0  0  0  0  0  0  0  0  0  0  0  0
  1  2  1  0
  3  2  1  1
  3  4  1  0
  4  5  1  0
  5  6  2  0
  5  7  1  0
  7  8  1  0
  8  9  1  1
  8 10  1  0
 10 11  1  6
 10 12  1  0
 12 13  1  1
 13 14  1  0
 14 15  1  0
 15 16  1  0
 16 17  1  0
 16 18  1  0
 18 19  1  0
 18 20  1  0
 20 21  1  0
 21 22  1  0
 21 23  1  0
 20 24  1  0
 24 25  1  0
 12 26  1  0
 26 27  1  1
 27 28  1  0
 28 29  2  0
 29 30  1  0
 30 31  1  0
 30 32  2  0
 26 33  1  0
 33 34  1  0
 34 35  1  1
 34 36  1  0
 36 37  2  0
 36 38  1  0
 38 39  2  0
 39 40  1  0
 40 41  1  0
 40 42  2  0
 42 43  1  0
 43 44  1  6
 44 45  1  0
 45 46  1  0
 46 47  1  0
 47 48  1  0
 48 49  1  0
 48 50  1  0
 50 51  1  0
 50 52  1  0
 52 53  1  0
 53 54  1  0
 52 55  1  0
 55 56  1  0
 56 57  1  0
 43  3  1  0
 55 46  1  0
 24 14  1  0
M  END
>  <ChEMBL_IDs>  (487) 
CHEMBL407512

>  <target_organism>  (487) 
Hepatitis C virus,None

>  <target_molecule_pref_name>  (487) 
nan

>  <# Known Targets>  (487) 
nan

>  <Known Targets>  (487) 
nan

>  <smiles>  (487) 
CC[C@H]1OC(=O)C[C@@H](O)[C@H](C)[C@@H](OC2OC(C)C(O)C(N(C)C)C2O)[C@@H](C/C=C/C(C)=O)C[C@@H](C)C(=O)/C=C/C(C)=C/[C@@H]1COC1OC(C)C(O)C(OC)C1OC

$$$$

     RDKit          2D

 58 60  0  0  0  0  0  0  0  0999 V2000
   17.6057   -8.6986    0.0000 C   0  0  0  0  0  0  0  0  0  0  0  0
   16.4157   -9.6117    0.0000 C   0  0  0  0  0  0  0  0  0  0  0  0
   15.0299   -9.0377    0.0000 C   0  0  0  0  0  0  0  0  0  0  0  0
   13.8398   -9.9509    0.0000 C   0  0  0  0  0  0  0  0  0  0  0  0
   12.4540   -9.3768    0.0000 C   0  0  0  0  0  0  0  0  0  0  0  0
   12.2582   -7.8897    0.0000 O   0  0  0  0  0  0  0  0  0  0  0  0
   11.2640  -10.2900    0.0000 O   0  0  0  0  0  0  0  0  0  0  0  0
    9.8782   -9.7159    0.0000 C   0  0  0  0  0  0  0  0  0  0  0  0
    9.6824   -8.2288    0.0000 C   0  0  0  0  0  0  0  0  0  0  0  0
   10.8724   -7.3156    0.0000 C   0  0  0  0  0  0  0  0  0  0  0  0
    8.2966   -7.6548    0.0000 O   0  0  0  0  0  0  0  0  0  0  0  0
    7.1065   -8.5679    0.0000 C   0  0  0  0  0  0  0  0  0  0  0  0
    5.7207   -7.9939    0.0000 O   0  0  0  0  0  0  0  0  0  0  0  0
    5.5249   -6.5067    0.0000 C   0  0  0  0  0  0  0  0  0  0  0  0
    4.1391   -5.9327    0.0000 C   0  0  0  0  0  0  0  0  0  0  0  0
    2.9491   -6.8458    0.0000 C   0  0  0  0  0  0  0  0  0  0  0  0
    3.9433   -4.4455    0.0000 O   0  0  0  0  0  0  0  0  0  0  0  0
    5.1333   -3.5324    0.0000 C   0  0  0  0  0  0  0  0  0  0  0  0
    4.9376   -2.0452    0.0000 O   0  0  0  0  0  0  0  0  0  0  0  0
    3.5517   -1.4712    0.0000 C   0  0  0  0  0  0  0  0  0  0  0  0
    3.8444   -0.0000    0.0000 C   0  0  0  0  0  0  0  0  0  0  0  0
    5.3444    0.0000    0.0000 C   0  0  0  0  0  0  0  0  0  0  0  0
    6.0944   -1.2990    0.0000 C   0  0  0  0  0  0  0  0  0  0  0  0
    7.5944   -1.2990    0.0000 O   0  0  0  0  0  0  0  0  0  0  0  0
    3.5517    1.4712    0.0000 C   0  0  0  0  0  0  0  0  0  0  0  0
    2.7184    2.7184    0.0000 C   0  0  0  0  0  0  0  0  0  0  0  0
    3.7790    3.7790    0.0000 C   0  0  0  0  0  0  0  0  0  0  0  0
    1.4712    3.5517    0.0000 C   0  0  0  0  0  0  0  0  0  0  0  0
    2.0452    4.9376    0.0000 O   0  0  0  0  0  0  0  0  0  0  0  0
   -0.0000    3.8444    0.0000 C   0  0  0  0  0  0  0  0  0  0  0  0
   -1.4712    3.5517    0.0000 C   0  0  0  0  0  0  0  0  0  0  0  0
   -2.7184    2.7184    0.0000 C   0  0  0  0  0  0  0  0  0  0  0  0
   -3.5517    1.4712    0.0000 C   0  0  0  0  0  0  0  0  0  0  0  0
   -3.8444   -0.0000    0.0000 C   0  0  0  0  0  0  0  0  0  0  0  0
   -3.5517   -1.4712    0.0000 C   0  0  0  0  0  0  0  0  0  0  0  0
   -4.9376   -2.0452    0.0000 C   0  0  0  0  0  0  0  0  0  0  0  0
   -2.7184   -2.7184    0.0000 O   0  0  0  0  0  0  0  0  0  0  0  0
   -1.4712   -3.5517    0.0000 C   0  0  0  0  0  0  0  0  0  0  0  0
   -2.0452   -4.9376    0.0000 O   0  0  0  0  0  0  0  0  0  0  0  0
    0.0000   -3.8444    0.0000 C   0  0  0  0  0  0  0  0  0  0  0  0
    1.4712   -3.5517    0.0000 C   0  0  0  0  0  0  0  0  0  0  0  0
    2.0452   -4.9376    0.0000 O   0  0  0  0  0  0  0  0  0  0  0  0
    1.1321   -6.1276    0.0000 C   0  0  0  0  0  0  0  0  0  0  0  0
    1.7061   -7.5134    0.0000 C   0  0  0  0  0  0  0  0  0  0  0  0
   -0.3551   -5.9318    0.0000 O   0  0  0  0  0  0  0  0  0  0  0  0
    2.7184   -2.7184    0.0000 C   0  0  0  0  0  0  0  0  0  0  0  0
    3.7790   -3.7790    0.0000 O   0  0  0  0  0  0  0  0  0  0  0  0
    3.3908   -5.2279    0.0000 C   0  0  0  0  0  0  0  0  0  0  0  0
    6.5192   -4.1064    0.0000 C   0  0  0  0  0  0  0  0  0  0  0  0
    7.7092   -3.1933    0.0000 O   0  0  0  0  0  0  0  0  0  0  0  0
    6.7150   -5.5936    0.0000 C   0  0  0  0  0  0  0  0  0  0  0  0
    8.1008   -6.1676    0.0000 N   0  0  0  0  0  0  0  0  0  0  0  0
    8.6506   -7.5632    0.0000 C   0  0  0  0  0  0  0  0  0  0  0  0
    9.2908   -5.2544    0.0000 C   0  0  0  0  0  0  0  0  0  0  0  0
    7.3023  -10.0551    0.0000 C   0  0  0  0  0  0  0  0  0  0  0  0
    8.6881  -10.6291    0.0000 C   0  0  0  0  0  0  0  0  0  0  0  0
    7.8822  -11.8942    0.0000 C   0  0  0  0  0  0  0  0  0  0  0  0
    9.7941  -11.6425    0.0000 O   0  0  0  0  0  0  0  0  0  0  0  0
  1  2  1  0
  2  3  1  0
  3  4  1  0
  4  5  1  0
  5  6  2  0
  5  7  1  0
  7  8  1  0
  8  9  1  0
  9 10  1  0
  9 11  1  0
 11 12  1  0
 12 13  1  0
 13 14  1  0
 14 15  1  0
 15 16  1  0
 15 17  1  0
 17 18  1  0
 18 19  1  0
 19 20  1  0
 20 21  1  0
 21 22  1  0
 22 23  1  0
 23 24  2  0
 21 25  1  0
 25 26  1  0
 26 27  1  0
 26 28  1  0
 28 29  1  0
 28 30  1  0
 30 31  2  0
 31 32  1  0
 32 33  2  0
 33 34  1  0
 34 35  1  0
 35 36  1  0
 35 37  1  0
 37 38  1  0
 38 39  2  0
 38 40  1  0
 40 41  1  0
 41 42  1  0
 42 43  1  0
 43 44  1  0
 43 45  2  0
 41 46  1  0
 46 47  1  0
 47 48  1  0
 18 49  1  0
 49 50  1  0
 49 51  1  0
 51 52  1  0
 52 53  1  0
 52 54  1  0
 12 55  1  0
 55 56  1  0
 56 57  1  0
 56 58  1  0
 56  8  1  0
 51 14  1  0
 46 20  1  0
M  END
>  <ChEMBL_IDs>  (488) 
nan

>  <target_organism>  (488) 
nan

>  <target_molecule_pref_name>  (488) 
nan

>  <# Known Targets>  (488) 
nan

>  <Known Targets>  (488) 
nan

>  <smiles>  (488) 
CCCCC(=O)OC1C(C)OC(OC2C(C)OC(OC3C(CC=O)CC(C)C(O)/C=C\C=C/CC(C)OC(=O)CC(OC(C)=O)C3OC)C(O)C2N(C)C)CC1(C)O

$$$$

     RDKit          2D

 58 60  0  0  0  0  0  0  0  0999 V2000
   14.4272  -14.4124    0.0000 C   0  0  0  0  0  0  0  0  0  0  0  0
   13.0414  -13.8383    0.0000 C   0  0  0  0  0  0  0  0  0  0  0  0
   12.8456  -12.3512    0.0000 C   0  0  0  0  0  0  0  0  0  0  0  0
   11.4598  -11.7771    0.0000 C   0  0  0  0  0  0  0  0  0  0  0  0
   10.2698  -12.6903    0.0000 O   0  0  0  0  0  0  0  0  0  0  0  0
   11.2640  -10.2900    0.0000 O   0  0  0  0  0  0  0  0  0  0  0  0
    9.8782   -9.7159    0.0000 C   0  0  0  0  0  0  0  0  0  0  0  0
    9.6824   -8.2288    0.0000 C   0  0  0  0  0  0  0  0  0  0  0  0
   10.8724   -7.3156    0.0000 C   0  0  0  0  0  0  0  0  0  0  0  0
    8.2966   -7.6548    0.0000 O   0  0  0  0  0  0  0  0  0  0  0  0
    7.1065   -8.5679    0.0000 C   0  0  0  0  0  0  0  0  0  0  0  0
    5.7207   -7.9939    0.0000 O   0  0  0  0  0  0  0  0  0  0  0  0
    5.5249   -6.5067    0.0000 C   0  0  0  0  0  0  0  0  0  0  0  0
    4.1391   -5.9327    0.0000 C   0  0  0  0  0  0  0  0  0  0  0  0
    2.9491   -6.8458    0.0000 C   0  0  0  0  0  0  0  0  0  0  0  0
    3.9433   -4.4455    0.0000 O   0  0  0  0  0  0  0  0  0  0  0  0
    5.1333   -3.5324    0.0000 C   0  0  0  0  0  0  0  0  0  0  0  0
    4.9376   -2.0452    0.0000 O   0  0  0  0  0  0  0  0  0  0  0  0
    3.5517   -1.4712    0.0000 C   0  0  0  0  0  0  0  0  0  0  0  0
    3.8444    0.0000    0.0000 C   0  0  0  0  0  0  0  0  0  0  0  0
    5.3444    0.0000    0.0000 C   0  0  0  0  0  0  0  0  0  0  0  0
    6.0944   -1.2990    0.0000 C   0  0  0  0  0  0  0  0  0  0  0  0
    7.5944   -1.2990    0.0000 O   0  0  0  0  0  0  0  0  0  0  0  0
    3.5517    1.4712    0.0000 C   0  0  0  0  0  0  0  0  0  0  0  0
    2.7184    2.7184    0.0000 C   0  0  0  0  0  0  0  0  0  0  0  0
    3.7790    3.7790    0.0000 C   0  0  0  0  0  0  0  0  0  0  0  0
    1.4712    3.5517    0.0000 C   0  0  0  0  0  0  0  0  0  0  0  0
    2.0452    4.9376    0.0000 O   0  0  0  0  0  0  0  0  0  0  0  0
    0.0000    3.8444    0.0000 C   0  0  0  0  0  0  0  0  0  0  0  0
   -1.4712    3.5517    0.0000 C   0  0  0  0  0  0  0  0  0  0  0  0
   -2.7184    2.7184    0.0000 C   0  0  0  0  0  0  0  0  0  0  0  0
   -3.5517    1.4712    0.0000 C   0  0  0  0  0  0  0  0  0  0  0  0
   -3.8444    0.0000    0.0000 C   0  0  0  0  0  0  0  0  0  0  0  0
   -3.5517   -1.4712    0.0000 C   0  0  0  0  0  0  0  0  0  0  0  0
   -4.9376   -2.0452    0.0000 C   0  0  0  0  0  0  0  0  0  0  0  0
   -2.7184   -2.7184    0.0000 O   0  0  0  0  0  0  0  0  0  0  0  0
   -1.4712   -3.5517    0.0000 C   0  0  0  0  0  0  0  0  0  0  0  0
   -2.0452   -4.9376    0.0000 O   0  0  0  0  0  0  0  0  0  0  0  0
   -0.0000   -3.8444    0.0000 C   0  0  0  0  0  0  0  0  0  0  0  0
    1.4712   -3.5517    0.0000 C   0  0  0  0  0  0  0  0  0  0  0  0
    2.0452   -4.9376    0.0000 O   0  0  0  0  0  0  0  0  0  0  0  0
    1.1321   -6.1276    0.0000 C   0  0  0  0  0  0  0  0  0  0  0  0
    1.7061   -7.5134    0.0000 O   0  0  0  0  0  0  0  0  0  0  0  0
   -0.3551   -5.9318    0.0000 C   0  0  0  0  0  0  0  0  0  0  0  0
   -1.2682   -7.1218    0.0000 C   0  0  0  0  0  0  0  0  0  0  0  0
    2.7184   -2.7184    0.0000 C   0  0  0  0  0  0  0  0  0  0  0  0
    3.7790   -3.7790    0.0000 O   0  0  0  0  0  0  0  0  0  0  0  0
    3.3908   -5.2279    0.0000 C   0  0  0  0  0  0  0  0  0  0  0  0
    6.5192   -4.1064    0.0000 C   0  0  0  0  0  0  0  0  0  0  0  0
    7.7092   -3.1933    0.0000 O   0  0  0  0  0  0  0  0  0  0  0  0
    6.7150   -5.5936    0.0000 C   0  0  0  0  0  0  0  0  0  0  0  0
    8.1008   -6.1676    0.0000 N   0  0  0  0  0  0  0  0  0  0  0  0
    8.6506   -7.5632    0.0000 C   0  0  0  0  0  0  0  0  0  0  0  0
    9.2908   -5.2544    0.0000 C   0  0  0  0  0  0  0  0  0  0  0  0
    7.3023  -10.0551    0.0000 C   0  0  0  0  0  0  0  0  0  0  0  0
    8.6881  -10.6291    0.0000 C   0  0  0  0  0  0  0  0  0  0  0  0
    7.8822  -11.8942    0.0000 C   0  0  0  0  0  0  0  0  0  0  0  0
    9.7941  -11.6425    0.0000 O   0  0  0  0  0  0  0  0  0  0  0  0
  1  2  1  0
  2  3  1  0
  3  4  1  0
  4  5  2  0
  4  6  1  0
  6  7  1  0
  7  8  1  0
  8  9  1  0
  8 10  1  0
 10 11  1  0
 11 12  1  0
 12 13  1  0
 13 14  1  0
 14 15  1  0
 14 16  1  0
 16 17  1  0
 17 18  1  0
 18 19  1  0
 19 20  1  0
 20 21  1  0
 21 22  1  0
 22 23  2  0
 20 24  1  0
 24 25  1  0
 25 26  1  0
 25 27  1  0
 27 28  1  0
 27 29  1  0
 29 30  2  0
 30 31  1  0
 31 32  2  0
 32 33  1  0
 33 34  1  0
 34 35  1  0
 34 36  1  0
 36 37  1  0
 37 38  2  0
 37 39  1  0
 39 40  1  0
 40 41  1  0
 41 42  1  0
 42 43  2  0
 42 44  1  0
 44 45  1  0
 40 46  1  0
 46 47  1  0
 47 48  1  0
 17 49  1  0
 49 50  1  0
 49 51  1  0
 51 52  1  0
 52 53  1  0
 52 54  1  0
 11 55  1  0
 55 56  1  0
 56 57  1  0
 56 58  1  0
 56  7  1  0
 51 13  1  0
 46 19  1  0
M  END
>  <ChEMBL_IDs>  (489) 
nan

>  <target_organism>  (489) 
nan

>  <target_molecule_pref_name>  (489) 
nan

>  <# Known Targets>  (489) 
nan

>  <Known Targets>  (489) 
nan

>  <smiles>  (489) 
CCCC(=O)OC1C(C)OC(OC2C(C)OC(OC3C(CC=O)CC(C)C(O)/C=C\C=C/CC(C)OC(=O)CC(OC(=O)CC)C3OC)C(O)C2N(C)C)CC1(C)O

$$$$

     RDKit          2D

 58 60  0  0  0  0  0  0  0  0999 V2000
   18.4042   -4.8111    0.0000 C   0  0  0  0  0  0  0  0  0  0  0  0
   17.0184   -4.2371    0.0000 C   0  0  0  0  0  0  0  0  0  0  0  0
   16.8226   -2.7499    0.0000 C   0  0  0  0  0  0  0  0  0  0  0  0
   15.4367   -2.1759    0.0000 C   0  0  0  0  0  0  0  0  0  0  0  0
   14.2467   -3.0890    0.0000 O   0  0  0  0  0  0  0  0  0  0  0  0
   15.2410   -0.6887    0.0000 O   0  0  0  0  0  0  0  0  0  0  0  0
   13.8551   -0.1147    0.0000 C   0  0  0  0  0  0  0  0  0  0  0  0
   12.6651   -1.0279    0.0000 C   0  0  0  0  0  0  0  0  0  0  0  0
   12.8609   -2.5150    0.0000 C   0  0  0  0  0  0  0  0  0  0  0  0
   11.2793   -0.4538    0.0000 O   0  0  0  0  0  0  0  0  0  0  0  0
   11.0835    1.0333    0.0000 C   0  0  0  0  0  0  0  0  0  0  0  0
    9.6977    1.6074    0.0000 O   0  0  0  0  0  0  0  0  0  0  0  0
    8.5076    0.6942    0.0000 C   0  0  0  0  0  0  0  0  0  0  0  0
    7.1218    1.2682    0.0000 C   0  0  0  0  0  0  0  0  0  0  0  0
    6.9260    2.7554    0.0000 C   0  0  0  0  0  0  0  0  0  0  0  0
    5.9318    0.3551    0.0000 O   0  0  0  0  0  0  0  0  0  0  0  0
    6.1276   -1.1321    0.0000 C   0  0  0  0  0  0  0  0  0  0  0  0
    4.9376   -2.0452    0.0000 O   0  0  0  0  0  0  0  0  0  0  0  0
    3.5517   -1.4712    0.0000 C   0  0  0  0  0  0  0  0  0  0  0  0
    2.7184   -2.7184    0.0000 C   0  0  0  0  0  0  0  0  0  0  0  0
    3.7790   -3.7790    0.0000 O   0  0  0  0  0  0  0  0  0  0  0  0
    5.2279   -3.3908    0.0000 C   0  0  0  0  0  0  0  0  0  0  0  0
    1.4712   -3.5517    0.0000 C   0  0  0  0  0  0  0  0  0  0  0  0
    2.0452   -4.9376    0.0000 O   0  0  0  0  0  0  0  0  0  0  0  0
   -0.0000   -3.8444    0.0000 C   0  0  0  0  0  0  0  0  0  0  0  0
   -1.4712   -3.5517    0.0000 C   0  0  0  0  0  0  0  0  0  0  0  0
   -2.0452   -4.9376    0.0000 O   0  0  0  0  0  0  0  0  0  0  0  0
   -2.7184   -2.7184    0.0000 O   0  0  0  0  0  0  0  0  0  0  0  0
   -3.5517   -1.4712    0.0000 C   0  0  0  0  0  0  0  0  0  0  0  0
   -4.9376   -2.0452    0.0000 C   0  0  0  0  0  0  0  0  0  0  0  0
   -3.8444    0.0000    0.0000 C   0  0  0  0  0  0  0  0  0  0  0  0
   -3.5517    1.4712    0.0000 C   0  0  0  0  0  0  0  0  0  0  0  0
   -2.7184    2.7184    0.0000 C   0  0  0  0  0  0  0  0  0  0  0  0
   -1.4712    3.5517    0.0000 C   0  0  0  0  0  0  0  0  0  0  0  0
    0.0000    3.8444    0.0000 C   0  0  0  0  0  0  0  0  0  0  0  0
    1.4712    3.5517    0.0000 C   0  0  0  0  0  0  0  0  0  0  0  0
    2.0452    4.9376    0.0000 O   0  0  0  0  0  0  0  0  0  0  0  0
    2.7184    2.7184    0.0000 C   0  0  0  0  0  0  0  0  0  0  0  0
    3.7790    3.7790    0.0000 C   0  0  0  0  0  0  0  0  0  0  0  0
    3.5517    1.4712    0.0000 C   0  0  0  0  0  0  0  0  0  0  0  0
    3.8444    0.0000    0.0000 C   0  0  0  0  0  0  0  0  0  0  0  0
    5.3444   -0.0000    0.0000 C   0  0  0  0  0  0  0  0  0  0  0  0
    6.0944    1.2990    0.0000 C   0  0  0  0  0  0  0  0  0  0  0  0
    7.5498    1.6620    0.0000 O   0  0  0  0  0  0  0  0  0  0  0  0
    7.5134   -1.7061    0.0000 C   0  0  0  0  0  0  0  0  0  0  0  0
    7.7092   -3.1933    0.0000 O   0  0  0  0  0  0  0  0  0  0  0  0
    8.7034   -0.7929    0.0000 C   0  0  0  0  0  0  0  0  0  0  0  0
   10.0893   -1.3670    0.0000 N   0  0  0  0  0  0  0  0  0  0  0  0
   10.2850   -2.8541    0.0000 C   0  0  0  0  0  0  0  0  0  0  0  0
   11.4649   -0.7689    0.0000 C   0  0  0  0  0  0  0  0  0  0  0  0
   12.2735    1.9465    0.0000 C   0  0  0  0  0  0  0  0  0  0  0  0
   13.6593    1.3725    0.0000 C   0  0  0  0  0  0  0  0  0  0  0  0
   13.9840    2.8369    0.0000 C   0  0  0  0  0  0  0  0  0  0  0  0
   15.1579    1.3070    0.0000 O   0  0  0  0  0  0  0  0  0  0  0  0
   15.9639    2.5721    0.0000 C   0  0  0  0  0  0  0  0  0  0  0  0
   15.2712    3.9026    0.0000 O   0  0  0  0  0  0  0  0  0  0  0  0
   17.4624    2.5067    0.0000 C   0  0  0  0  0  0  0  0  0  0  0  0
   18.2684    3.7718    0.0000 C   0  0  0  0  0  0  0  0  0  0  0  0
  1  2  1  0
  2  3  1  0
  3  4  1  0
  4  5  2  0
  4  6  1  0
  7  6  1  1
  7  8  1  0
  8  9  1  6
  8 10  1  0
 10 11  1  0
 11 12  1  1
 13 12  1  1
 13 14  1  0
 14 15  1  6
 14 16  1  0
 16 17  1  0
 17 18  1  6
 19 18  1  6
 19 20  1  0
 20 21  1  1
 21 22  1  0
 20 23  1  0
 23 24  1  6
 23 25  1  0
 25 26  1  0
 26 27  2  0
 26 28  1  0
 28 29  1  0
 29 30  1  6
 29 31  1  0
 31 32  1  0
 32 33  2  0
 33 34  1  0
 34 35  2  0
 35 36  1  0
 36 37  1  6
 36 38  1  0
 38 39  1  6
 38 40  1  0
 40 41  1  0
 41 42  1  6
 42 43  1  0
 43 44  2  0
 17 45  1  0
 45 46  1  1
 45 47  1  0
 47 48  1  6
 48 49  1  0
 48 50  1  0
 11 51  1  0
 51 52  1  0
 52 53  1  6
 52 54  1  0
 54 55  1  0
 55 56  2  0
 55 57  1  0
 57 58  1  0
 52  7  1  0
 47 13  1  0
 41 19  1  0
M  END
>  <ChEMBL_IDs>  (490) 
CHEMBL1908350

>  <target_organism>  (490) 
Staphylococcus aureus

>  <target_molecule_pref_name>  (490) 
nan

>  <# Known Targets>  (490) 
nan

>  <Known Targets>  (490) 
nan

>  <smiles>  (490) 
CCCC(=O)O[C@H]1[C@H](C)O[C@@H](O[C@@H]2[C@@H](C)O[C@@H](O[C@@H]3[C@@H](OC)[C@H](O)CC(=O)O[C@H](C)C/C=C/C=C/[C@H](O)[C@H](C)C[C@@H]3CC=O)[C@H](O)[C@H]2N(C)C)C[C@@]1(C)OC(=O)CC

$$$$

     RDKit          2D

 58 60  0  0  0  0  0  0  0  0999 V2000
   -4.1911  -12.3247    0.0000 C   0  0  0  0  0  0  0  0  0  0  0  0
   -3.0011  -11.4115    0.0000 C   0  0  0  0  0  0  0  0  0  0  0  0
   -1.6153  -11.9856    0.0000 C   0  0  0  0  0  0  0  0  0  0  0  0
   -0.4252  -11.0724    0.0000 C   0  0  0  0  0  0  0  0  0  0  0  0
   -0.6210   -9.5852    0.0000 O   0  0  0  0  0  0  0  0  0  0  0  0
    0.9606  -11.6464    0.0000 O   0  0  0  0  0  0  0  0  0  0  0  0
    2.1506  -10.7333    0.0000 C   0  0  0  0  0  0  0  0  0  0  0  0
    1.9548   -9.2461    0.0000 C   0  0  0  0  0  0  0  0  0  0  0  0
    0.5690   -8.6721    0.0000 C   0  0  0  0  0  0  0  0  0  0  0  0
    3.1449   -8.3330    0.0000 O   0  0  0  0  0  0  0  0  0  0  0  0
    4.5307   -8.9070    0.0000 C   0  0  0  0  0  0  0  0  0  0  0  0
    5.7207   -7.9939    0.0000 O   0  0  0  0  0  0  0  0  0  0  0  0
    5.5249   -6.5067    0.0000 C   0  0  0  0  0  0  0  0  0  0  0  0
    6.7150   -5.5936    0.0000 C   0  0  0  0  0  0  0  0  0  0  0  0
    8.1008   -6.1676    0.0000 C   0  0  0  0  0  0  0  0  0  0  0  0
    6.5192   -4.1064    0.0000 O   0  0  0  0  0  0  0  0  0  0  0  0
    5.1333   -3.5324    0.0000 C   0  0  0  0  0  0  0  0  0  0  0  0
    4.9376   -2.0452    0.0000 O   0  0  0  0  0  0  0  0  0  0  0  0
    6.1276   -1.1321    0.0000 C   0  0  0  0  0  0  0  0  0  0  0  0
    5.4642    0.2132    0.0000 C   0  0  0  0  0  0  0  0  0  0  0  0
    4.0153   -0.1750    0.0000 C   0  0  0  0  0  0  0  0  0  0  0  0
    3.6270   -1.6239    0.0000 C   0  0  0  0  0  0  0  0  0  0  0  0
    2.1781   -2.0121    0.0000 O   0  0  0  0  0  0  0  0  0  0  0  0
    5.3660    1.7100    0.0000 C   0  0  0  0  0  0  0  0  0  0  0  0
    5.8482    3.1304    0.0000 C   0  0  0  0  0  0  0  0  0  0  0  0
    4.5492    3.8804    0.0000 C   0  0  0  0  0  0  0  0  0  0  0  0
    6.8372    4.2582    0.0000 C   0  0  0  0  0  0  0  0  0  0  0  0
    5.9241    5.4482    0.0000 O   0  0  0  0  0  0  0  0  0  0  0  0
    8.1825    4.9216    0.0000 C   0  0  0  0  0  0  0  0  0  0  0  0
    9.6793    5.0197    0.0000 C   0  0  0  0  0  0  0  0  0  0  0  0
   11.0997    4.5376    0.0000 C   0  0  0  0  0  0  0  0  0  0  0  0
   12.2275    3.5486    0.0000 C   0  0  0  0  0  0  0  0  0  0  0  0
   12.8909    2.2032    0.0000 C   0  0  0  0  0  0  0  0  0  0  0  0
   12.9890    0.7065    0.0000 C   0  0  0  0  0  0  0  0  0  0  0  0
   14.4762    0.5107    0.0000 C   0  0  0  0  0  0  0  0  0  0  0  0
   12.5069   -0.7139    0.0000 O   0  0  0  0  0  0  0  0  0  0  0  0
   11.5178   -1.8417    0.0000 C   0  0  0  0  0  0  0  0  0  0  0  0
   12.4310   -3.0317    0.0000 O   0  0  0  0  0  0  0  0  0  0  0  0
   10.1725   -2.5051    0.0000 C   0  0  0  0  0  0  0  0  0  0  0  0
    8.6757   -2.6032    0.0000 C   0  0  0  0  0  0  0  0  0  0  0  0
    8.4800   -4.0904    0.0000 O   0  0  0  0  0  0  0  0  0  0  0  0
    7.2553   -2.1211    0.0000 C   0  0  0  0  0  0  0  0  0  0  0  0
    6.5053   -3.4201    0.0000 O   0  0  0  0  0  0  0  0  0  0  0  0
    7.2553   -4.7192    0.0000 C   0  0  0  0  0  0  0  0  0  0  0  0
    3.9433   -4.4455    0.0000 C   0  0  0  0  0  0  0  0  0  0  0  0
    2.5575   -3.8715    0.0000 O   0  0  0  0  0  0  0  0  0  0  0  0
    4.1391   -5.9327    0.0000 C   0  0  0  0  0  0  0  0  0  0  0  0
    2.9491   -6.8458    0.0000 N   0  0  0  0  0  0  0  0  0  0  0  0
    2.7792   -8.3362    0.0000 C   0  0  0  0  0  0  0  0  0  0  0  0
    1.5633   -6.2718    0.0000 C   0  0  0  0  0  0  0  0  0  0  0  0
    4.7265  -10.3942    0.0000 C   0  0  0  0  0  0  0  0  0  0  0  0
    3.5364  -11.3073    0.0000 C   0  0  0  0  0  0  0  0  0  0  0  0
    4.6424  -12.3207    0.0000 C   0  0  0  0  0  0  0  0  0  0  0  0
    2.7305  -12.5724    0.0000 O   0  0  0  0  0  0  0  0  0  0  0  0
    3.4231  -13.9029    0.0000 C   0  0  0  0  0  0  0  0  0  0  0  0
    4.9217  -13.9684    0.0000 O   0  0  0  0  0  0  0  0  0  0  0  0
    2.6172  -15.1680    0.0000 C   0  0  0  0  0  0  0  0  0  0  0  0
    3.3098  -16.4985    0.0000 C   0  0  0  0  0  0  0  0  0  0  0  0
  1  2  1  0
  2  3  1  0
  3  4  1  0
  4  5  2  0
  4  6  1  0
  6  7  1  0
  7  8  1  0
  8  9  1  0
  8 10  1  0
 10 11  1  0
 11 12  1  0
 12 13  1  0
 13 14  1  0
 14 15  1  0
 14 16  1  0
 16 17  1  0
 17 18  1  0
 18 19  1  0
 19 20  1  0
 20 21  1  0
 21 22  1  0
 22 23  2  0
 20 24  1  0
 24 25  1  0
 25 26  1  0
 25 27  1  0
 27 28  1  0
 27 29  1  0
 29 30  2  0
 30 31  1  0
 31 32  2  0
 32 33  1  0
 33 34  1  0
 34 35  1  0
 34 36  1  0
 36 37  1  0
 37 38  2  0
 37 39  1  0
 39 40  1  0
 40 41  1  0
 40 42  1  0
 42 43  1  0
 43 44  1  0
 17 45  1  0
 45 46  1  0
 45 47  1  0
 47 48  1  0
 48 49  1  0
 48 50  1  0
 11 51  1  0
 51 52  1  0
 52 53  1  0
 52 54  1  0
 54 55  1  0
 55 56  2  0
 55 57  1  0
 57 58  1  0
 52  7  1  0
 47 13  1  0
 42 19  1  0
M  END
>  <ChEMBL_IDs>  (491) 
nan

>  <target_organism>  (491) 
nan

>  <target_molecule_pref_name>  (491) 
nan

>  <# Known Targets>  (491) 
nan

>  <Known Targets>  (491) 
nan

>  <smiles>  (491) 
CCCC(=O)OC1C(C)OC(OC2C(C)OC(OC3C(CC=O)CC(C)C(O)/C=C\C=C/CC(C)OC(=O)CC(O)C3OC)C(O)C2N(C)C)CC1(C)OC(=O)CC

$$$$

     RDKit          2D

 58 60  0  0  0  0  0  0  0  0999 V2000
    6.0944   -1.2990    0.0000 C   0  0  0  0  0  0  0  0  0  0  0  0
    5.3444    0.0000    0.0000 C   0  0  0  0  0  0  0  0  0  0  0  0
    3.8444    0.0000    0.0000 C   0  0  0  0  0  0  0  0  0  0  0  0
    3.5517   -1.4712    0.0000 O   0  0  0  0  0  0  0  0  0  0  0  0
    2.7184   -2.7184    0.0000 C   0  0  0  0  0  0  0  0  0  0  0  0
    3.7790   -3.7790    0.0000 O   0  0  0  0  0  0  0  0  0  0  0  0
    1.4712   -3.5517    0.0000 C   0  0  0  0  0  0  0  0  0  0  0  0
   -0.0000   -3.8444    0.0000 C   0  0  0  0  0  0  0  0  0  0  0  0
   -0.0000   -5.3444    0.0000 O   0  0  0  0  0  0  0  0  0  0  0  0
   -1.4712   -3.5517    0.0000 C   0  0  0  0  0  0  0  0  0  0  0  0
   -1.6507   -4.7534    0.0000 C   0  0  0  0  0  0  0  0  0  0  0  0
   -2.7184   -2.7184    0.0000 C   0  0  0  0  0  0  0  0  0  0  0  0
   -3.7790   -3.7790    0.0000 O   0  0  0  0  0  0  0  0  0  0  0  0
   -3.3908   -5.2279    0.0000 C   0  0  0  0  0  0  0  0  0  0  0  0
   -1.9419   -5.6162    0.0000 O   0  0  0  0  0  0  0  0  0  0  0  0
   -1.5537   -7.0650    0.0000 C   0  0  0  0  0  0  0  0  0  0  0  0
   -0.1048   -7.4533    0.0000 C   0  0  0  0  0  0  0  0  0  0  0  0
   -2.6144   -8.1257    0.0000 C   0  0  0  0  0  0  0  0  0  0  0  0
   -2.2261   -9.5746    0.0000 O   0  0  0  0  0  0  0  0  0  0  0  0
   -4.0632   -7.7375    0.0000 C   0  0  0  0  0  0  0  0  0  0  0  0
   -5.1239   -8.7981    0.0000 N   0  0  0  0  0  0  0  0  0  0  0  0
   -6.5728   -8.4099    0.0000 C   0  0  0  0  0  0  0  0  0  0  0  0
   -4.7357  -10.2470    0.0000 C   0  0  0  0  0  0  0  0  0  0  0  0
   -4.4515   -6.2886    0.0000 C   0  0  0  0  0  0  0  0  0  0  0  0
   -5.9004   -5.9004    0.0000 O   0  0  0  0  0  0  0  0  0  0  0  0
   -3.5517   -1.4712    0.0000 C   0  0  0  0  0  0  0  0  0  0  0  0
   -4.9376   -2.0452    0.0000 C   0  0  0  0  0  0  0  0  0  0  0  0
   -6.1276   -1.1321    0.0000 C   0  0  0  0  0  0  0  0  0  0  0  0
   -7.5134   -1.7061    0.0000 C   0  0  0  0  0  0  0  0  0  0  0  0
   -8.7034   -0.7929    0.0000 C   0  0  0  0  0  0  0  0  0  0  0  0
   -8.5076    0.6942    0.0000 O   0  0  0  0  0  0  0  0  0  0  0  0
  -10.0893   -1.3670    0.0000 O   0  0  0  0  0  0  0  0  0  0  0  0
  -11.2793   -0.4538    0.0000 C   0  0  0  0  0  0  0  0  0  0  0  0
   -3.8444    0.0000    0.0000 C   0  0  0  0  0  0  0  0  0  0  0  0
   -3.5517    1.4712    0.0000 C   0  0  0  0  0  0  0  0  0  0  0  0
   -4.9376    2.0452    0.0000 C   0  0  0  0  0  0  0  0  0  0  0  0
   -2.7184    2.7184    0.0000 C   0  0  0  0  0  0  0  0  0  0  0  0
   -3.7790    3.7790    0.0000 O   0  0  0  0  0  0  0  0  0  0  0  0
   -1.4712    3.5517    0.0000 C   0  0  0  0  0  0  0  0  0  0  0  0
    0.0000    3.8444    0.0000 C   0  0  0  0  0  0  0  0  0  0  0  0
    1.4712    3.5517    0.0000 C   0  0  0  0  0  0  0  0  0  0  0  0
    2.0452    4.9376    0.0000 C   0  0  0  0  0  0  0  0  0  0  0  0
    2.7184    2.7184    0.0000 C   0  0  0  0  0  0  0  0  0  0  0  0
    3.5517    1.4712    0.0000 C   0  0  0  0  0  0  0  0  0  0  0  0
    4.9376    2.0452    0.0000 C   0  0  0  0  0  0  0  0  0  0  0  0
    6.1276    1.1321    0.0000 O   0  0  0  0  0  0  0  0  0  0  0  0
    7.5134    1.7061    0.0000 C   0  0  0  0  0  0  0  0  0  0  0  0
    8.7034    0.7929    0.0000 O   0  0  0  0  0  0  0  0  0  0  0  0
   10.0893    1.3670    0.0000 C   0  0  0  0  0  0  0  0  0  0  0  0
   11.2793    0.4538    0.0000 C   0  0  0  0  0  0  0  0  0  0  0  0
   10.2850    2.8541    0.0000 C   0  0  0  0  0  0  0  0  0  0  0  0
   11.6709    3.4282    0.0000 O   0  0  0  0  0  0  0  0  0  0  0  0
    9.0950    3.7673    0.0000 C   0  0  0  0  0  0  0  0  0  0  0  0
    9.2908    5.2544    0.0000 O   0  0  0  0  0  0  0  0  0  0  0  0
    8.1008    6.1676    0.0000 C   0  0  0  0  0  0  0  0  0  0  0  0
    7.7092    3.1933    0.0000 C   0  0  0  0  0  0  0  0  0  0  0  0
    6.5192    4.1064    0.0000 O   0  0  0  0  0  0  0  0  0  0  0  0
    6.7150    5.5936    0.0000 C   0  0  0  0  0  0  0  0  0  0  0  0
  1  2  1  0
  3  2  1  1
  3  4  1  0
  4  5  1  0
  5  6  2  0
  5  7  1  0
  7  8  1  0
  8  9  1  6
  8 10  1  0
 10 11  1  6
 10 12  1  0
 12 13  1  1
 13 14  1  0
 14 15  1  0
 15 16  1  0
 16 17  1  0
 16 18  1  0
 18 19  1  0
 18 20  1  0
 20 21  1  0
 21 22  1  0
 21 23  1  0
 20 24  1  0
 24 25  1  0
 12 26  1  0
 26 27  1  1
 27 28  1  0
 28 29  2  0
 29 30  1  0
 30 31  2  0
 30 32  1  0
 32 33  1  0
 26 34  1  0
 34 35  1  0
 35 36  1  1
 35 37  1  0
 37 38  2  0
 37 39  1  0
 39 40  2  0
 40 41  1  0
 41 42  1  0
 41 43  2  0
 43 44  1  0
 44 45  1  6
 45 46  1  0
 46 47  1  0
 47 48  1  0
 48 49  1  0
 49 50  1  0
 49 51  1  0
 51 52  1  0
 51 53  1  0
 53 54  1  0
 54 55  1  0
 53 56  1  0
 56 57  1  0
 57 58  1  0
 44  3  1  0
 56 47  1  0
 24 14  1  0
M  END
>  <ChEMBL_IDs>  (492) 
CHEMBL337566

>  <target_organism>  (492) 
Hepatitis C virus,None

>  <target_molecule_pref_name>  (492) 
nan

>  <# Known Targets>  (492) 
nan

>  <Known Targets>  (492) 
nan

>  <smiles>  (492) 
CC[C@H]1OC(=O)C[C@H](O)[C@H](C)[C@@H](OC2OC(C)C(O)C(N(C)C)C2O)[C@@H](C/C=C/C(=O)OC)C[C@@H](C)C(=O)/C=C/C(C)=C/[C@@H]1COC1OC(C)C(O)C(OC)C1OC

$$$$

     RDKit          2D

 58 60  0  0  0  0  0  0  0  0999 V2000
    6.0944   -1.2990    0.0000 C   0  0  0  0  0  0  0  0  0  0  0  0
    5.3444    0.0000    0.0000 C   0  0  0  0  0  0  0  0  0  0  0  0
    3.8444    0.0000    0.0000 C   0  0  0  0  0  0  0  0  0  0  0  0
    3.5517   -1.4712    0.0000 O   0  0  0  0  0  0  0  0  0  0  0  0
    2.7184   -2.7184    0.0000 C   0  0  0  0  0  0  0  0  0  0  0  0
    3.7790   -3.7790    0.0000 O   0  0  0  0  0  0  0  0  0  0  0  0
    1.4712   -3.5517    0.0000 C   0  0  0  0  0  0  0  0  0  0  0  0
   -0.0000   -3.8444    0.0000 C   0  0  0  0  0  0  0  0  0  0  0  0
   -0.0000   -5.3444    0.0000 O   0  0  0  0  0  0  0  0  0  0  0  0
   -1.4712   -3.5517    0.0000 C   0  0  0  0  0  0  0  0  0  0  0  0
   -1.6507   -4.7534    0.0000 C   0  0  0  0  0  0  0  0  0  0  0  0
   -2.7184   -2.7184    0.0000 C   0  0  0  0  0  0  0  0  0  0  0  0
   -3.7790   -3.7790    0.0000 O   0  0  0  0  0  0  0  0  0  0  0  0
   -3.3908   -5.2279    0.0000 C   0  0  0  0  0  0  0  0  0  0  0  0
   -1.9419   -5.6162    0.0000 O   0  0  0  0  0  0  0  0  0  0  0  0
   -1.5537   -7.0650    0.0000 C   0  0  0  0  0  0  0  0  0  0  0  0
   -0.1048   -7.4533    0.0000 C   0  0  0  0  0  0  0  0  0  0  0  0
   -2.6144   -8.1257    0.0000 C   0  0  0  0  0  0  0  0  0  0  0  0
   -2.2261   -9.5746    0.0000 O   0  0  0  0  0  0  0  0  0  0  0  0
   -4.0632   -7.7375    0.0000 C   0  0  0  0  0  0  0  0  0  0  0  0
   -5.1239   -8.7981    0.0000 N   0  0  0  0  0  0  0  0  0  0  0  0
   -6.5728   -8.4099    0.0000 C   0  0  0  0  0  0  0  0  0  0  0  0
   -4.7357  -10.2470    0.0000 C   0  0  0  0  0  0  0  0  0  0  0  0
   -4.4515   -6.2886    0.0000 C   0  0  0  0  0  0  0  0  0  0  0  0
   -5.9004   -5.9004    0.0000 O   0  0  0  0  0  0  0  0  0  0  0  0
   -3.5517   -1.4712    0.0000 C   0  0  0  0  0  0  0  0  0  0  0  0
   -4.9376   -2.0452    0.0000 C   0  0  0  0  0  0  0  0  0  0  0  0
   -6.1276   -1.1321    0.0000 C   0  0  0  0  0  0  0  0  0  0  0  0
   -7.5134   -1.7061    0.0000 C   0  0  0  0  0  0  0  0  0  0  0  0
   -8.7034   -0.7929    0.0000 C   0  0  0  0  0  0  0  0  0  0  0  0
   -8.5076    0.6942    0.0000 O   0  0  0  0  0  0  0  0  0  0  0  0
  -10.0893   -1.3670    0.0000 O   0  0  0  0  0  0  0  0  0  0  0  0
  -11.2793   -0.4538    0.0000 C   0  0  0  0  0  0  0  0  0  0  0  0
   -3.8444    0.0000    0.0000 C   0  0  0  0  0  0  0  0  0  0  0  0
   -3.5517    1.4712    0.0000 C   0  0  0  0  0  0  0  0  0  0  0  0
   -4.9376    2.0452    0.0000 C   0  0  0  0  0  0  0  0  0  0  0  0
   -2.7184    2.7184    0.0000 C   0  0  0  0  0  0  0  0  0  0  0  0
   -3.7790    3.7790    0.0000 O   0  0  0  0  0  0  0  0  0  0  0  0
   -1.4712    3.5517    0.0000 C   0  0  0  0  0  0  0  0  0  0  0  0
    0.0000    3.8444    0.0000 C   0  0  0  0  0  0  0  0  0  0  0  0
    1.4712    3.5517    0.0000 C   0  0  0  0  0  0  0  0  0  0  0  0
    2.0452    4.9376    0.0000 C   0  0  0  0  0  0  0  0  0  0  0  0
    2.7184    2.7184    0.0000 C   0  0  0  0  0  0  0  0  0  0  0  0
    3.5517    1.4712    0.0000 C   0  0  0  0  0  0  0  0  0  0  0  0
    4.9376    2.0452    0.0000 C   0  0  0  0  0  0  0  0  0  0  0  0
    6.1276    1.1321    0.0000 O   0  0  0  0  0  0  0  0  0  0  0  0
    7.5134    1.7061    0.0000 C   0  0  0  0  0  0  0  0  0  0  0  0
    8.7034    0.7929    0.0000 O   0  0  0  0  0  0  0  0  0  0  0  0
   10.0893    1.3670    0.0000 C   0  0  0  0  0  0  0  0  0  0  0  0
   11.2793    0.4538    0.0000 C   0  0  0  0  0  0  0  0  0  0  0  0
   10.2850    2.8541    0.0000 C   0  0  0  0  0  0  0  0  0  0  0  0
   11.6709    3.4282    0.0000 O   0  0  0  0  0  0  0  0  0  0  0  0
    9.0950    3.7673    0.0000 C   0  0  0  0  0  0  0  0  0  0  0  0
    9.2908    5.2544    0.0000 O   0  0  0  0  0  0  0  0  0  0  0  0
    8.1008    6.1676    0.0000 C   0  0  0  0  0  0  0  0  0  0  0  0
    7.7092    3.1933    0.0000 C   0  0  0  0  0  0  0  0  0  0  0  0
    6.5192    4.1064    0.0000 O   0  0  0  0  0  0  0  0  0  0  0  0
    6.7150    5.5936    0.0000 C   0  0  0  0  0  0  0  0  0  0  0  0
  1  2  1  0
  3  2  1  1
  3  4  1  0
  4  5  1  0
  5  6  2  0
  5  7  1  0
  7  8  1  0
  8  9  1  1
  8 10  1  0
 10 11  1  6
 10 12  1  0
 12 13  1  1
 13 14  1  0
 14 15  1  0
 15 16  1  0
 16 17  1  0
 16 18  1  0
 18 19  1  0
 18 20  1  0
 20 21  1  0
 21 22  1  0
 21 23  1  0
 20 24  1  0
 24 25  1  0
 12 26  1  0
 26 27  1  1
 27 28  1  0
 28 29  2  0
 29 30  1  0
 30 31  2  0
 30 32  1  0
 32 33  1  0
 26 34  1  0
 34 35  1  0
 35 36  1  1
 35 37  1  0
 37 38  2  0
 37 39  1  0
 39 40  2  0
 40 41  1  0
 41 42  1  0
 41 43  2  0
 43 44  1  0
 44 45  1  6
 45 46  1  0
 46 47  1  0
 47 48  1  0
 48 49  1  0
 49 50  1  0
 49 51  1  0
 51 52  1  0
 51 53  1  0
 53 54  1  0
 54 55  1  0
 53 56  1  0
 56 57  1  0
 57 58  1  0
 44  3  1  0
 56 47  1  0
 24 14  1  0
M  END
>  <ChEMBL_IDs>  (493) 
CHEMBL137270

>  <target_organism>  (493) 
nan

>  <target_molecule_pref_name>  (493) 
nan

>  <# Known Targets>  (493) 
nan

>  <Known Targets>  (493) 
nan

>  <smiles>  (493) 
CC[C@H]1OC(=O)C[C@@H](O)[C@H](C)[C@@H](OC2OC(C)C(O)C(N(C)C)C2O)[C@@H](C/C=C/C(=O)OC)C[C@@H](C)C(=O)/C=C/C(C)=C/[C@@H]1COC1OC(C)C(O)C(OC)C1OC

$$$$

     RDKit          2D

 58 60  0  0  0  0  0  0  0  0999 V2000
    6.0944   -1.2990    0.0000 C   0  0  0  0  0  0  0  0  0  0  0  0
    5.3444    0.0000    0.0000 O   0  0  0  0  0  0  0  0  0  0  0  0
    3.8444    0.0000    0.0000 C   0  0  0  0  0  0  0  0  0  0  0  0
    3.5517   -1.4712    0.0000 C   0  0  0  0  0  0  0  0  0  0  0  0
    4.9376   -2.0452    0.0000 O   0  0  0  0  0  0  0  0  0  0  0  0
    5.1333   -3.5324    0.0000 C   0  0  0  0  0  0  0  0  0  0  0  0
    3.9433   -4.4455    0.0000 O   0  0  0  0  0  0  0  0  0  0  0  0
    4.1391   -5.9327    0.0000 C   0  0  0  0  0  0  0  0  0  0  0  0
    2.9491   -6.8458    0.0000 C   0  0  0  0  0  0  0  0  0  0  0  0
    5.5249   -6.5067    0.0000 C   0  0  0  0  0  0  0  0  0  0  0  0
    5.7207   -7.9939    0.0000 O   0  0  0  0  0  0  0  0  0  0  0  0
    4.5307   -8.9070    0.0000 C   0  0  0  0  0  0  0  0  0  0  0  0
    3.1449   -8.3330    0.0000 C   0  0  0  0  0  0  0  0  0  0  0  0
    1.9548   -9.2461    0.0000 C   0  0  0  0  0  0  0  0  0  0  0  0
    0.5243   -9.6972    0.0000 C   0  0  0  0  0  0  0  0  0  0  0  0
    1.2622   -7.9156    0.0000 O   0  0  0  0  0  0  0  0  0  0  0  0
    2.1506  -10.7333    0.0000 C   0  0  0  0  0  0  0  0  0  0  0  0
    0.9606  -11.6464    0.0000 O   0  0  0  0  0  0  0  0  0  0  0  0
    1.1564  -13.1336    0.0000 C   0  0  0  0  0  0  0  0  0  0  0  0
    2.5422  -13.7076    0.0000 O   0  0  0  0  0  0  0  0  0  0  0  0
   -0.0336  -14.0468    0.0000 C   0  0  0  0  0  0  0  0  0  0  0  0
    0.1621  -15.5339    0.0000 C   0  0  0  0  0  0  0  0  0  0  0  0
   -1.0279  -16.4471    0.0000 C   0  0  0  0  0  0  0  0  0  0  0  0
    1.5480  -16.1079    0.0000 C   0  0  0  0  0  0  0  0  0  0  0  0
    3.5364  -11.3073    0.0000 C   0  0  0  0  0  0  0  0  0  0  0  0
    3.7322  -12.7945    0.0000 C   0  0  0  0  0  0  0  0  0  0  0  0
    4.7265  -10.3942    0.0000 O   0  0  0  0  0  0  0  0  0  0  0  0
    6.7150   -5.5936    0.0000 C   0  0  0  0  0  0  0  0  0  0  0  0
    8.1008   -6.1676    0.0000 N   0  0  0  0  0  0  0  0  0  0  0  0
    8.2966   -7.6548    0.0000 C   0  0  0  0  0  0  0  0  0  0  0  0
    9.2908   -5.2544    0.0000 C   0  0  0  0  0  0  0  0  0  0  0  0
    6.5192   -4.1064    0.0000 C   0  0  0  0  0  0  0  0  0  0  0  0
    7.7092   -3.1933    0.0000 O   0  0  0  0  0  0  0  0  0  0  0  0
    2.7184   -2.7184    0.0000 C   0  0  0  0  0  0  0  0  0  0  0  0
    3.7790   -3.7790    0.0000 C   0  0  0  0  0  0  0  0  0  0  0  0
    3.3908   -5.2279    0.0000 C   0  0  0  0  0  0  0  0  0  0  0  0
    4.1633   -6.5137    0.0000 O   0  0  0  0  0  0  0  0  0  0  0  0
    1.4712   -3.5517    0.0000 C   0  0  0  0  0  0  0  0  0  0  0  0
   -0.0000   -3.8444    0.0000 C   0  0  0  0  0  0  0  0  0  0  0  0
   -0.0000   -5.3444    0.0000 C   0  0  0  0  0  0  0  0  0  0  0  0
   -1.4712   -3.5517    0.0000 C   0  0  0  0  0  0  0  0  0  0  0  0
   -2.0452   -4.9376    0.0000 O   0  0  0  0  0  0  0  0  0  0  0  0
   -2.7184   -2.7184    0.0000 C   0  0  0  0  0  0  0  0  0  0  0  0
   -3.5517   -1.4712    0.0000 C   0  0  0  0  0  0  0  0  0  0  0  0
   -3.8444    0.0000    0.0000 C   0  0  0  0  0  0  0  0  0  0  0  0
   -3.5517    1.4712    0.0000 C   0  0  0  0  0  0  0  0  0  0  0  0
   -2.7184    2.7184    0.0000 C   0  0  0  0  0  0  0  0  0  0  0  0
   -1.4712    3.5517    0.0000 C   0  0  0  0  0  0  0  0  0  0  0  0
   -2.0452    4.9376    0.0000 C   0  0  0  0  0  0  0  0  0  0  0  0
    0.0000    3.8444    0.0000 O   0  0  0  0  0  0  0  0  0  0  0  0
    1.4712    3.5517    0.0000 C   0  0  0  0  0  0  0  0  0  0  0  0
    2.0452    4.9376    0.0000 O   0  0  0  0  0  0  0  0  0  0  0  0
    2.7184    2.7184    0.0000 C   0  0  0  0  0  0  0  0  0  0  0  0
    3.5517    1.4712    0.0000 C   0  0  0  0  0  0  0  0  0  0  0  0
    4.9376    2.0452    0.0000 O   0  0  0  0  0  0  0  0  0  0  0  0
    6.1276    1.1321    0.0000 C   0  0  0  0  0  0  0  0  0  0  0  0
    7.5134    1.7061    0.0000 C   0  0  0  0  0  0  0  0  0  0  0  0
    6.2975   -0.3583    0.0000 O   0  0  0  0  0  0  0  0  0  0  0  0
  1  2  1  0
  2  3  1  0
  3  4  1  0
  4  5  1  1
  6  5  1  1
  6  7  1  0
  7  8  1  0
  8  9  1  1
  8 10  1  0
 10 11  1  6
 12 11  1  6
 12 13  1  0
 13 14  1  0
 14 15  1  1
 14 16  1  0
 14 17  1  0
 17 18  1  1
 18 19  1  0
 19 20  2  0
 19 21  1  0
 21 22  1  0
 22 23  1  0
 22 24  1  0
 17 25  1  0
 25 26  1  1
 25 27  1  0
 10 28  1  0
 28 29  1  1
 29 30  1  0
 29 31  1  0
 28 32  1  0
 32 33  1  6
  4 34  1  0
 34 35  1  1
 35 36  1  0
 36 37  2  0
 34 38  1  0
 38 39  1  0
 39 40  1  1
 39 41  1  0
 41 42  1  1
 41 43  1  0
 43 44  2  0
 44 45  1  0
 45 46  2  0
 46 47  1  0
 47 48  1  0
 48 49  1  1
 48 50  1  0
 50 51  1  0
 51 52  2  0
 51 53  1  0
 53 54  1  0
 54 55  1  1
 55 56  1  0
 56 57  1  0
 56 58  2  0
 54  3  1  0
 32  6  1  0
 27 12  1  0
M  END
>  <ChEMBL_IDs>  (494) 
CHEMBL2361089

>  <target_organism>  (494) 
Homo sapiens

>  <target_molecule_pref_name>  (494) 
nan

>  <# Known Targets>  (494) 
nan

>  <Known Targets>  (494) 
nan

>  <smiles>  (494) 
COC1[C@@H](O[C@@H]2O[C@H](C)[C@@H](O[C@H]3C[C@@](C)(O)[C@H](OC(=O)CC(C)C)[C@H](C)O3)[C@H](N(C)C)[C@H]2O)[C@@H](CC=O)C[C@@H](C)[C@@H](O)/C=C/C=C/C[C@@H](C)OC(=O)C[C@H]1OC(C)=O

$$$$

     RDKit          2D

 58 60  0  0  0  0  0  0  0  0999 V2000
    6.0944   -1.2990    0.0000 C   0  0  0  0  0  0  0  0  0  0  0  0
    5.3444    0.0000    0.0000 O   0  0  0  0  0  0  0  0  0  0  0  0
    3.8444    0.0000    0.0000 C   0  0  0  0  0  0  0  0  0  0  0  0
    3.5517   -1.4712    0.0000 C   0  0  0  0  0  0  0  0  0  0  0  0
    4.9376   -2.0452    0.0000 O   0  0  0  0  0  0  0  0  0  0  0  0
    5.1333   -3.5324    0.0000 C   0  0  0  0  0  0  0  0  0  0  0  0
    3.9433   -4.4455    0.0000 O   0  0  0  0  0  0  0  0  0  0  0  0
    4.1391   -5.9327    0.0000 C   0  0  0  0  0  0  0  0  0  0  0  0
    2.9491   -6.8458    0.0000 C   0  0  0  0  0  0  0  0  0  0  0  0
    5.5249   -6.5067    0.0000 C   0  0  0  0  0  0  0  0  0  0  0  0
    5.7207   -7.9939    0.0000 O   0  0  0  0  0  0  0  0  0  0  0  0
    4.5307   -8.9070    0.0000 C   0  0  0  0  0  0  0  0  0  0  0  0
    3.1449   -8.3330    0.0000 C   0  0  0  0  0  0  0  0  0  0  0  0
    1.9548   -9.2461    0.0000 C   0  0  0  0  0  0  0  0  0  0  0  0
    0.5243   -9.6972    0.0000 C   0  0  0  0  0  0  0  0  0  0  0  0
    1.2622   -7.9156    0.0000 O   0  0  0  0  0  0  0  0  0  0  0  0
    2.1506  -10.7333    0.0000 C   0  0  0  0  0  0  0  0  0  0  0  0
    0.9606  -11.6464    0.0000 O   0  0  0  0  0  0  0  0  0  0  0  0
    1.1564  -13.1336    0.0000 C   0  0  0  0  0  0  0  0  0  0  0  0
    2.5422  -13.7076    0.0000 O   0  0  0  0  0  0  0  0  0  0  0  0
   -0.0336  -14.0468    0.0000 C   0  0  0  0  0  0  0  0  0  0  0  0
    0.1621  -15.5339    0.0000 C   0  0  0  0  0  0  0  0  0  0  0  0
   -1.0279  -16.4471    0.0000 C   0  0  0  0  0  0  0  0  0  0  0  0
    1.5480  -16.1079    0.0000 C   0  0  0  0  0  0  0  0  0  0  0  0
    3.5364  -11.3073    0.0000 C   0  0  0  0  0  0  0  0  0  0  0  0
    3.7322  -12.7945    0.0000 C   0  0  0  0  0  0  0  0  0  0  0  0
    4.7265  -10.3942    0.0000 O   0  0  0  0  0  0  0  0  0  0  0  0
    6.7150   -5.5936    0.0000 C   0  0  0  0  0  0  0  0  0  0  0  0
    8.1008   -6.1676    0.0000 N   0  0  0  0  0  0  0  0  0  0  0  0
    8.2966   -7.6548    0.0000 C   0  0  0  0  0  0  0  0  0  0  0  0
    9.2908   -5.2544    0.0000 C   0  0  0  0  0  0  0  0  0  0  0  0
    6.5192   -4.1064    0.0000 C   0  0  0  0  0  0  0  0  0  0  0  0
    7.7092   -3.1933    0.0000 O   0  0  0  0  0  0  0  0  0  0  0  0
    2.7184   -2.7184    0.0000 C   0  0  0  0  0  0  0  0  0  0  0  0
    3.7790   -3.7790    0.0000 C   0  0  0  0  0  0  0  0  0  0  0  0
    3.3908   -5.2279    0.0000 C   0  0  0  0  0  0  0  0  0  0  0  0
    4.1633   -6.5137    0.0000 O   0  0  0  0  0  0  0  0  0  0  0  0
    1.4712   -3.5517    0.0000 C   0  0  0  0  0  0  0  0  0  0  0  0
   -0.0000   -3.8444    0.0000 C   0  0  0  0  0  0  0  0  0  0  0  0
   -0.0000   -5.3444    0.0000 C   0  0  0  0  0  0  0  0  0  0  0  0
   -1.4712   -3.5517    0.0000 C   0  0  0  0  0  0  0  0  0  0  0  0
   -2.0452   -4.9376    0.0000 O   0  0  0  0  0  0  0  0  0  0  0  0
   -2.7184   -2.7184    0.0000 C   0  0  0  0  0  0  0  0  0  0  0  0
   -3.5517   -1.4712    0.0000 C   0  0  0  0  0  0  0  0  0  0  0  0
   -3.8444    0.0000    0.0000 C   0  0  0  0  0  0  0  0  0  0  0  0
   -3.5517    1.4712    0.0000 C   0  0  0  0  0  0  0  0  0  0  0  0
   -2.7184    2.7184    0.0000 C   0  0  0  0  0  0  0  0  0  0  0  0
   -1.4712    3.5517    0.0000 C   0  0  0  0  0  0  0  0  0  0  0  0
   -2.0452    4.9376    0.0000 C   0  0  0  0  0  0  0  0  0  0  0  0
    0.0000    3.8444    0.0000 O   0  0  0  0  0  0  0  0  0  0  0  0
    1.4712    3.5517    0.0000 C   0  0  0  0  0  0  0  0  0  0  0  0
    2.0452    4.9376    0.0000 O   0  0  0  0  0  0  0  0  0  0  0  0
    2.7184    2.7184    0.0000 C   0  0  0  0  0  0  0  0  0  0  0  0
    3.5517    1.4712    0.0000 C   0  0  0  0  0  0  0  0  0  0  0  0
    4.9376    2.0452    0.0000 O   0  0  0  0  0  0  0  0  0  0  0  0
    6.1276    1.1321    0.0000 C   0  0  0  0  0  0  0  0  0  0  0  0
    7.5134    1.7061    0.0000 C   0  0  0  0  0  0  0  0  0  0  0  0
    6.2975   -0.3583    0.0000 O   0  0  0  0  0  0  0  0  0  0  0  0
  1  2  1  0
  3  2  1  6
  3  4  1  0
  4  5  1  1
  5  6  1  0
  6  7  1  0
  7  8  1  0
  8  9  1  0
  8 10  1  0
 10 11  1  0
 11 12  1  0
 12 13  1  0
 13 14  1  0
 14 15  1  0
 14 16  1  0
 14 17  1  0
 17 18  1  0
 18 19  1  0
 19 20  2  0
 19 21  1  0
 21 22  1  0
 22 23  1  0
 22 24  1  0
 17 25  1  0
 25 26  1  0
 25 27  1  0
 10 28  1  0
 28 29  1  0
 29 30  1  0
 29 31  1  0
 28 32  1  0
 32 33  1  0
  4 34  1  0
 34 35  1  1
 35 36  1  0
 36 37  2  0
 34 38  1  0
 38 39  1  0
 39 40  1  1
 39 41  1  0
 41 42  1  1
 41 43  1  0
 43 44  2  0
 44 45  1  0
 45 46  2  0
 46 47  1  0
 47 48  1  0
 48 49  1  1
 48 50  1  0
 50 51  1  0
 51 52  2  0
 51 53  1  0
 53 54  1  0
 54 55  1  1
 55 56  1  0
 56 57  1  0
 56 58  2  0
 54  3  1  0
 32  6  1  0
 27 12  1  0
M  END
>  <ChEMBL_IDs>  (495) 
CHEMBL329011

>  <target_organism>  (495) 
Homo sapiens

>  <target_molecule_pref_name>  (495) 
nan

>  <# Known Targets>  (495) 
nan

>  <Known Targets>  (495) 
nan

>  <smiles>  (495) 
CO[C@@H]1[C@@H](OC2OC(C)C(OC3CC(C)(O)C(OC(=O)CC(C)C)C(C)O3)C(N(C)C)C2O)[C@@H](CC=O)C[C@@H](C)[C@@H](O)/C=C/C=C/C[C@@H](C)OC(=O)C[C@H]1OC(C)=O

$$$$

     RDKit          2D

 58 60  0  0  0  0  0  0  0  0999 V2000
    6.0944   -1.2990    0.0000 C   0  0  0  0  0  0  0  0  0  0  0  0
    5.3444   -0.0000    0.0000 O   0  0  0  0  0  0  0  0  0  0  0  0
    3.8444   -0.0000    0.0000 C   0  0  0  0  0  0  0  0  0  0  0  0
    3.5517   -1.4712    0.0000 C   0  0  0  0  0  0  0  0  0  0  0  0
    4.9376   -2.0452    0.0000 O   0  0  0  0  0  0  0  0  0  0  0  0
    5.1333   -3.5324    0.0000 C   0  0  0  0  0  0  0  0  0  0  0  0
    6.5192   -4.1064    0.0000 C   0  0  0  0  0  0  0  0  0  0  0  0
    3.9433   -4.4455    0.0000 O   0  0  0  0  0  0  0  0  0  0  0  0
    2.7184   -2.7184    0.0000 C   0  0  0  0  0  0  0  0  0  0  0  0
    1.4712   -3.5517    0.0000 C   0  0  0  0  0  0  0  0  0  0  0  0
    2.0452   -4.9376    0.0000 O   0  0  0  0  0  0  0  0  0  0  0  0
   -0.0000   -3.8444    0.0000 O   0  0  0  0  0  0  0  0  0  0  0  0
   -1.4712   -3.5517    0.0000 C   0  0  0  0  0  0  0  0  0  0  0  0
   -2.0452   -4.9376    0.0000 C   0  0  0  0  0  0  0  0  0  0  0  0
   -2.7184   -2.7184    0.0000 C   0  0  0  0  0  0  0  0  0  0  0  0
   -3.5517   -1.4712    0.0000 C   0  0  0  0  0  0  0  0  0  0  0  0
   -3.8444    0.0000    0.0000 C   0  0  0  0  0  0  0  0  0  0  0  0
   -3.5517    1.4712    0.0000 C   0  0  0  0  0  0  0  0  0  0  0  0
   -2.7184    2.7184    0.0000 C   0  0  0  0  0  0  0  0  0  0  0  0
   -1.4712    3.5517    0.0000 C   0  0  0  0  0  0  0  0  0  0  0  0
   -2.0452    4.9376    0.0000 O   0  0  0  0  0  0  0  0  0  0  0  0
   -0.0000    3.8444    0.0000 C   0  0  0  0  0  0  0  0  0  0  0  0
    0.0000    5.3444    0.0000 C   0  0  0  0  0  0  0  0  0  0  0  0
    1.4712    3.5517    0.0000 C   0  0  0  0  0  0  0  0  0  0  0  0
    2.7184    2.7184    0.0000 C   0  0  0  0  0  0  0  0  0  0  0  0
    3.7790    3.7790    0.0000 C   0  0  0  0  0  0  0  0  0  0  0  0
    5.2279    3.3908    0.0000 C   0  0  0  0  0  0  0  0  0  0  0  0
    6.2886    4.4515    0.0000 O   0  0  0  0  0  0  0  0  0  0  0  0
    3.5517    1.4712    0.0000 C   0  0  0  0  0  0  0  0  0  0  0  0
    4.9376    2.0452    0.0000 O   0  0  0  0  0  0  0  0  0  0  0  0
    6.1276    1.1321    0.0000 C   0  0  0  0  0  0  0  0  0  0  0  0
    5.9318   -0.3551    0.0000 O   0  0  0  0  0  0  0  0  0  0  0  0
    7.1218   -1.2682    0.0000 C   0  0  0  0  0  0  0  0  0  0  0  0
    6.9260   -2.7554    0.0000 C   0  0  0  0  0  0  0  0  0  0  0  0
    8.5076   -0.6942    0.0000 C   0  0  0  0  0  0  0  0  0  0  0  0
    9.6977   -1.6074    0.0000 O   0  0  0  0  0  0  0  0  0  0  0  0
   11.0835   -1.0333    0.0000 C   0  0  0  0  0  0  0  0  0  0  0  0
   12.2735   -1.9465    0.0000 C   0  0  0  0  0  0  0  0  0  0  0  0
   13.6593   -1.3725    0.0000 C   0  0  0  0  0  0  0  0  0  0  0  0
   15.1579   -1.3070    0.0000 C   0  0  0  0  0  0  0  0  0  0  0  0
   13.9840   -2.8369    0.0000 O   0  0  0  0  0  0  0  0  0  0  0  0
   13.8551    0.1147    0.0000 C   0  0  0  0  0  0  0  0  0  0  0  0
   15.2410    0.6887    0.0000 O   0  0  0  0  0  0  0  0  0  0  0  0
   15.4367    2.1759    0.0000 C   0  0  0  0  0  0  0  0  0  0  0  0
   14.2467    3.0890    0.0000 O   0  0  0  0  0  0  0  0  0  0  0  0
   16.8226    2.7499    0.0000 C   0  0  0  0  0  0  0  0  0  0  0  0
   17.0184    4.2371    0.0000 C   0  0  0  0  0  0  0  0  0  0  0  0
   18.4042    4.8111    0.0000 C   0  0  0  0  0  0  0  0  0  0  0  0
   15.8283    5.1502    0.0000 C   0  0  0  0  0  0  0  0  0  0  0  0
   12.6651    1.0279    0.0000 C   0  0  0  0  0  0  0  0  0  0  0  0
   12.8609    2.5150    0.0000 C   0  0  0  0  0  0  0  0  0  0  0  0
   11.2793    0.4538    0.0000 O   0  0  0  0  0  0  0  0  0  0  0  0
    8.7034    0.7929    0.0000 C   0  0  0  0  0  0  0  0  0  0  0  0
   10.0893    1.3670    0.0000 N   0  0  0  0  0  0  0  0  0  0  0  0
   10.2850    2.8541    0.0000 C   0  0  0  0  0  0  0  0  0  0  0  0
   11.4649    0.7689    0.0000 C   0  0  0  0  0  0  0  0  0  0  0  0
    7.5134    1.7061    0.0000 C   0  0  0  0  0  0  0  0  0  0  0  0
    7.7092    3.1933    0.0000 O   0  0  0  0  0  0  0  0  0  0  0  0
  1  2  1  0
  2  3  1  0
  3  4  1  0
  4  5  1  0
  5  6  1  0
  6  7  1  0
  6  8  2  0
  4  9  1  0
  9 10  1  0
 10 11  2  0
 10 12  1  0
 12 13  1  0
 13 14  1  0
 13 15  1  0
 15 16  1  0
 16 17  2  0
 17 18  1  0
 18 19  2  0
 19 20  1  0
 20 21  1  0
 20 22  1  0
 22 23  1  0
 22 24  1  0
 24 25  1  0
 25 26  1  0
 26 27  1  0
 27 28  2  0
 25 29  1  0
 29 30  1  0
 30 31  1  0
 31 32  1  0
 32 33  1  0
 33 34  1  0
 33 35  1  0
 35 36  1  0
 36 37  1  0
 37 38  1  0
 38 39  1  0
 39 40  1  0
 39 41  1  0
 39 42  1  0
 42 43  1  0
 43 44  1  0
 44 45  2  0
 44 46  1  0
 46 47  1  0
 47 48  1  0
 47 49  1  0
 42 50  1  0
 50 51  1  0
 50 52  1  0
 35 53  1  0
 53 54  1  0
 54 55  1  0
 54 56  1  0
 53 57  1  0
 57 58  1  0
 29  3  1  0
 57 31  1  0
 52 37  1  0
M  END
>  <ChEMBL_IDs>  (496) 
CHEMBL1995525

>  <target_organism>  (496) 
Staphylococcus aureus

>  <target_molecule_pref_name>  (496) 
nan

>  <# Known Targets>  (496) 
nan

>  <Known Targets>  (496) 
nan

>  <smiles>  (496) 
COC1C(OC(C)=O)CC(=O)OC(C)C/C=C/C=C\C(O)C(C)CC(CC=O)C1OC1OC(C)C(OC2CC(C)(O)C(OC(=O)CC(C)C)C(C)O2)C(N(C)C)C1O

$$$$

     RDKit          2D

 58 60  0  0  0  0  0  0  0  0999 V2000
    6.0944   -1.2990    0.0000 C   0  0  0  0  0  0  0  0  0  0  0  0
    5.3444    0.0000    0.0000 O   0  0  0  0  0  0  0  0  0  0  0  0
    3.8444    0.0000    0.0000 C   0  0  0  0  0  0  0  0  0  0  0  0
    3.5517   -1.4712    0.0000 C   0  0  0  0  0  0  0  0  0  0  0  0
    4.9376   -2.0452    0.0000 O   0  0  0  0  0  0  0  0  0  0  0  0
    5.1333   -3.5324    0.0000 C   0  0  0  0  0  0  0  0  0  0  0  0
    3.9433   -4.4455    0.0000 O   0  0  0  0  0  0  0  0  0  0  0  0
    4.1391   -5.9327    0.0000 C   0  0  0  0  0  0  0  0  0  0  0  0
    2.9491   -6.8458    0.0000 C   0  0  0  0  0  0  0  0  0  0  0  0
    5.5249   -6.5067    0.0000 C   0  0  0  0  0  0  0  0  0  0  0  0
    5.7207   -7.9939    0.0000 O   0  0  0  0  0  0  0  0  0  0  0  0
    4.5307   -8.9070    0.0000 C   0  0  0  0  0  0  0  0  0  0  0  0
    3.1449   -8.3330    0.0000 C   0  0  0  0  0  0  0  0  0  0  0  0
    1.9548   -9.2461    0.0000 C   0  0  0  0  0  0  0  0  0  0  0  0
    0.5243   -9.6972    0.0000 C   0  0  0  0  0  0  0  0  0  0  0  0
    1.2622   -7.9156    0.0000 O   0  0  0  0  0  0  0  0  0  0  0  0
    2.1506  -10.7333    0.0000 C   0  0  0  0  0  0  0  0  0  0  0  0
    0.9606  -11.6464    0.0000 O   0  0  0  0  0  0  0  0  0  0  0  0
    1.1564  -13.1336    0.0000 C   0  0  0  0  0  0  0  0  0  0  0  0
    2.5422  -13.7076    0.0000 O   0  0  0  0  0  0  0  0  0  0  0  0
   -0.0336  -14.0468    0.0000 C   0  0  0  0  0  0  0  0  0  0  0  0
    0.1621  -15.5339    0.0000 C   0  0  0  0  0  0  0  0  0  0  0  0
   -1.0279  -16.4471    0.0000 C   0  0  0  0  0  0  0  0  0  0  0  0
    1.5480  -16.1079    0.0000 C   0  0  0  0  0  0  0  0  0  0  0  0
    3.5364  -11.3073    0.0000 C   0  0  0  0  0  0  0  0  0  0  0  0
    3.7322  -12.7945    0.0000 C   0  0  0  0  0  0  0  0  0  0  0  0
    4.7265  -10.3942    0.0000 O   0  0  0  0  0  0  0  0  0  0  0  0
    6.7150   -5.5936    0.0000 C   0  0  0  0  0  0  0  0  0  0  0  0
    8.1008   -6.1676    0.0000 N   0  0  0  0  0  0  0  0  0  0  0  0
    8.2966   -7.6548    0.0000 C   0  0  0  0  0  0  0  0  0  0  0  0
    9.2908   -5.2544    0.0000 C   0  0  0  0  0  0  0  0  0  0  0  0
    6.5192   -4.1064    0.0000 C   0  0  0  0  0  0  0  0  0  0  0  0
    7.7092   -3.1933    0.0000 O   0  0  0  0  0  0  0  0  0  0  0  0
    2.7184   -2.7184    0.0000 C   0  0  0  0  0  0  0  0  0  0  0  0
    3.7790   -3.7790    0.0000 C   0  0  0  0  0  0  0  0  0  0  0  0
    3.3908   -5.2279    0.0000 C   0  0  0  0  0  0  0  0  0  0  0  0
    4.1633   -6.5137    0.0000 O   0  0  0  0  0  0  0  0  0  0  0  0
    1.4712   -3.5517    0.0000 C   0  0  0  0  0  0  0  0  0  0  0  0
   -0.0000   -3.8444    0.0000 C   0  0  0  0  0  0  0  0  0  0  0  0
   -0.0000   -5.3444    0.0000 C   0  0  0  0  0  0  0  0  0  0  0  0
   -1.4712   -3.5517    0.0000 C   0  0  0  0  0  0  0  0  0  0  0  0
   -2.0452   -4.9376    0.0000 O   0  0  0  0  0  0  0  0  0  0  0  0
   -2.7184   -2.7184    0.0000 C   0  0  0  0  0  0  0  0  0  0  0  0
   -3.5517   -1.4712    0.0000 C   0  0  0  0  0  0  0  0  0  0  0  0
   -3.8444    0.0000    0.0000 C   0  0  0  0  0  0  0  0  0  0  0  0
   -3.5517    1.4712    0.0000 C   0  0  0  0  0  0  0  0  0  0  0  0
   -2.7184    2.7184    0.0000 C   0  0  0  0  0  0  0  0  0  0  0  0
   -1.4712    3.5517    0.0000 C   0  0  0  0  0  0  0  0  0  0  0  0
   -2.0452    4.9376    0.0000 C   0  0  0  0  0  0  0  0  0  0  0  0
    0.0000    3.8444    0.0000 O   0  0  0  0  0  0  0  0  0  0  0  0
    1.4712    3.5517    0.0000 C   0  0  0  0  0  0  0  0  0  0  0  0
    2.0452    4.9376    0.0000 O   0  0  0  0  0  0  0  0  0  0  0  0
    2.7184    2.7184    0.0000 C   0  0  0  0  0  0  0  0  0  0  0  0
    3.5517    1.4712    0.0000 C   0  0  0  0  0  0  0  0  0  0  0  0
    4.9376    2.0452    0.0000 O   0  0  0  0  0  0  0  0  0  0  0  0
    6.1276    1.1321    0.0000 C   0  0  0  0  0  0  0  0  0  0  0  0
    7.5134    1.7061    0.0000 C   0  0  0  0  0  0  0  0  0  0  0  0
    6.2975   -0.3583    0.0000 O   0  0  0  0  0  0  0  0  0  0  0  0
  1  2  1  0
  3  2  1  6
  3  4  1  0
  4  5  1  1
  6  5  1  1
  6  7  1  0
  7  8  1  0
  8  9  1  1
  8 10  1  0
 10 11  1  6
 12 11  1  6
 12 13  1  0
 13 14  1  0
 14 15  1  1
 14 16  1  0
 14 17  1  0
 17 18  1  6
 18 19  1  0
 19 20  2  0
 19 21  1  0
 21 22  1  0
 22 23  1  0
 22 24  1  0
 17 25  1  0
 25 26  1  1
 25 27  1  0
 10 28  1  0
 28 29  1  1
 29 30  1  0
 29 31  1  0
 28 32  1  0
 32 33  1  6
  4 34  1  0
 34 35  1  1
 35 36  1  0
 36 37  2  0
 34 38  1  0
 38 39  1  0
 39 40  1  1
 39 41  1  0
 41 42  1  1
 41 43  1  0
 43 44  2  0
 44 45  1  0
 45 46  2  0
 46 47  1  0
 47 48  1  0
 48 49  1  1
 48 50  1  0
 50 51  1  0
 51 52  2  0
 51 53  1  0
 53 54  1  0
 54 55  1  1
 55 56  1  0
 56 57  1  0
 56 58  2  0
 54  3  1  0
 32  6  1  0
 27 12  1  0
M  END
>  <ChEMBL_IDs>  (497) 
CHEMBL1671903

>  <target_organism>  (497) 
None

>  <target_molecule_pref_name>  (497) 
nan

>  <# Known Targets>  (497) 
nan

>  <Known Targets>  (497) 
nan

>  <smiles>  (497) 
CO[C@@H]1[C@@H](O[C@@H]2O[C@H](C)[C@@H](O[C@H]3C[C@@](C)(O)[C@@H](OC(=O)CC(C)C)[C@H](C)O3)[C@H](N(C)C)[C@H]2O)[C@@H](CC=O)C[C@@H](C)[C@@H](O)/C=C\C=C\C[C@@H](C)OC(=O)C[C@H]1OC(C)=O

$$$$

     RDKit          2D

 58 60  0  0  0  0  0  0  0  0999 V2000
    6.0944   -1.2990    0.0000 C   0  0  0  0  0  0  0  0  0  0  0  0
    5.3444   -0.0000    0.0000 O   0  0  0  0  0  0  0  0  0  0  0  0
    3.8444   -0.0000    0.0000 C   0  0  0  0  0  0  0  0  0  0  0  0
    3.5517   -1.4712    0.0000 C   0  0  0  0  0  0  0  0  0  0  0  0
    4.9376   -2.0452    0.0000 O   0  0  0  0  0  0  0  0  0  0  0  0
    5.1333   -3.5324    0.0000 C   0  0  0  0  0  0  0  0  0  0  0  0
    6.5192   -4.1064    0.0000 C   0  0  0  0  0  0  0  0  0  0  0  0
    3.9433   -4.4455    0.0000 O   0  0  0  0  0  0  0  0  0  0  0  0
    2.7184   -2.7184    0.0000 C   0  0  0  0  0  0  0  0  0  0  0  0
    1.4712   -3.5517    0.0000 C   0  0  0  0  0  0  0  0  0  0  0  0
    2.0452   -4.9376    0.0000 O   0  0  0  0  0  0  0  0  0  0  0  0
   -0.0000   -3.8444    0.0000 O   0  0  0  0  0  0  0  0  0  0  0  0
   -1.4712   -3.5517    0.0000 C   0  0  0  0  0  0  0  0  0  0  0  0
   -2.0452   -4.9376    0.0000 C   0  0  0  0  0  0  0  0  0  0  0  0
   -2.7184   -2.7184    0.0000 C   0  0  0  0  0  0  0  0  0  0  0  0
   -3.5517   -1.4712    0.0000 C   0  0  0  0  0  0  0  0  0  0  0  0
   -3.8444    0.0000    0.0000 C   0  0  0  0  0  0  0  0  0  0  0  0
   -3.5517    1.4712    0.0000 C   0  0  0  0  0  0  0  0  0  0  0  0
   -2.7184    2.7184    0.0000 C   0  0  0  0  0  0  0  0  0  0  0  0
   -1.4712    3.5517    0.0000 C   0  0  0  0  0  0  0  0  0  0  0  0
   -2.0452    4.9376    0.0000 O   0  0  0  0  0  0  0  0  0  0  0  0
   -0.0000    3.8444    0.0000 C   0  0  0  0  0  0  0  0  0  0  0  0
    0.0000    5.3444    0.0000 C   0  0  0  0  0  0  0  0  0  0  0  0
    1.4712    3.5517    0.0000 C   0  0  0  0  0  0  0  0  0  0  0  0
    2.7184    2.7184    0.0000 C   0  0  0  0  0  0  0  0  0  0  0  0
    3.7790    3.7790    0.0000 C   0  0  0  0  0  0  0  0  0  0  0  0
    5.2279    3.3908    0.0000 C   0  0  0  0  0  0  0  0  0  0  0  0
    6.2886    4.4515    0.0000 O   0  0  0  0  0  0  0  0  0  0  0  0
    3.5517    1.4712    0.0000 C   0  0  0  0  0  0  0  0  0  0  0  0
    4.9376    2.0452    0.0000 O   0  0  0  0  0  0  0  0  0  0  0  0
    6.1276    1.1321    0.0000 C   0  0  0  0  0  0  0  0  0  0  0  0
    5.9318   -0.3551    0.0000 O   0  0  0  0  0  0  0  0  0  0  0  0
    7.1218   -1.2682    0.0000 C   0  0  0  0  0  0  0  0  0  0  0  0
    6.9260   -2.7554    0.0000 C   0  0  0  0  0  0  0  0  0  0  0  0
    8.5076   -0.6942    0.0000 C   0  0  0  0  0  0  0  0  0  0  0  0
    9.6977   -1.6074    0.0000 O   0  0  0  0  0  0  0  0  0  0  0  0
   11.0835   -1.0333    0.0000 C   0  0  0  0  0  0  0  0  0  0  0  0
   12.2735   -1.9465    0.0000 C   0  0  0  0  0  0  0  0  0  0  0  0
   13.6593   -1.3725    0.0000 C   0  0  0  0  0  0  0  0  0  0  0  0
   15.1579   -1.3070    0.0000 C   0  0  0  0  0  0  0  0  0  0  0  0
   13.9840   -2.8369    0.0000 O   0  0  0  0  0  0  0  0  0  0  0  0
   13.8551    0.1147    0.0000 C   0  0  0  0  0  0  0  0  0  0  0  0
   15.2410    0.6887    0.0000 O   0  0  0  0  0  0  0  0  0  0  0  0
   15.4367    2.1759    0.0000 C   0  0  0  0  0  0  0  0  0  0  0  0
   14.2467    3.0890    0.0000 O   0  0  0  0  0  0  0  0  0  0  0  0
   16.8226    2.7499    0.0000 C   0  0  0  0  0  0  0  0  0  0  0  0
   17.0184    4.2371    0.0000 C   0  0  0  0  0  0  0  0  0  0  0  0
   18.4042    4.8111    0.0000 C   0  0  0  0  0  0  0  0  0  0  0  0
   15.8283    5.1502    0.0000 C   0  0  0  0  0  0  0  0  0  0  0  0
   12.6651    1.0279    0.0000 C   0  0  0  0  0  0  0  0  0  0  0  0
   12.8609    2.5150    0.0000 C   0  0  0  0  0  0  0  0  0  0  0  0
   11.2793    0.4538    0.0000 O   0  0  0  0  0  0  0  0  0  0  0  0
    8.7034    0.7929    0.0000 C   0  0  0  0  0  0  0  0  0  0  0  0
   10.0893    1.3670    0.0000 N   0  0  0  0  0  0  0  0  0  0  0  0
   10.2850    2.8541    0.0000 C   0  0  0  0  0  0  0  0  0  0  0  0
   11.4649    0.7689    0.0000 C   0  0  0  0  0  0  0  0  0  0  0  0
    7.5134    1.7061    0.0000 C   0  0  0  0  0  0  0  0  0  0  0  0
    7.7092    3.1933    0.0000 O   0  0  0  0  0  0  0  0  0  0  0  0
  1  2  1  0
  2  3  1  0
  3  4  1  0
  4  5  1  0
  5  6  1  0
  6  7  1  0
  6  8  2  0
  4  9  1  0
  9 10  1  0
 10 11  2  0
 10 12  1  0
 12 13  1  0
 13 14  1  0
 13 15  1  0
 15 16  1  0
 16 17  2  0
 17 18  1  0
 18 19  2  0
 19 20  1  0
 20 21  1  0
 20 22  1  0
 22 23  1  0
 22 24  1  0
 24 25  1  0
 25 26  1  0
 26 27  1  0
 27 28  2  0
 25 29  1  0
 29 30  1  0
 30 31  1  0
 31 32  1  0
 32 33  1  0
 33 34  1  0
 33 35  1  0
 35 36  1  0
 36 37  1  0
 37 38  1  0
 38 39  1  0
 39 40  1  0
 39 41  1  0
 39 42  1  0
 42 43  1  0
 43 44  1  0
 44 45  2  0
 44 46  1  0
 46 47  1  0
 47 48  1  0
 47 49  1  0
 42 50  1  0
 50 51  1  0
 50 52  1  0
 35 53  1  0
 53 54  1  0
 54 55  1  0
 54 56  1  0
 53 57  1  0
 57 58  1  0
 29  3  1  0
 57 31  1  0
 52 37  1  0
M  END
>  <ChEMBL_IDs>  (498) 
nan

>  <target_organism>  (498) 
nan

>  <target_molecule_pref_name>  (498) 
nan

>  <# Known Targets>  (498) 
nan

>  <Known Targets>  (498) 
nan

>  <smiles>  (498) 
COC1C(OC(C)=O)CC(=O)OC(C)C/C=C\C=C/C(O)C(C)CC(CC=O)C1OC1OC(C)C(OC2CC(C)(O)C(OC(=O)CC(C)C)C(C)O2)C(N(C)C)C1O

$$$$

     RDKit          2D

 58 60  0  0  0  0  0  0  0  0999 V2000
    6.0944   -1.2990    0.0000 C   0  0  0  0  0  0  0  0  0  0  0  0
    5.3444   -0.0000    0.0000 O   0  0  0  0  0  0  0  0  0  0  0  0
    3.8444   -0.0000    0.0000 C   0  0  0  0  0  0  0  0  0  0  0  0
    3.5517   -1.4712    0.0000 C   0  0  0  0  0  0  0  0  0  0  0  0
    4.9376   -2.0452    0.0000 O   0  0  0  0  0  0  0  0  0  0  0  0
    5.1333   -3.5324    0.0000 C   0  0  0  0  0  0  0  0  0  0  0  0
    6.5192   -4.1064    0.0000 C   0  0  0  0  0  0  0  0  0  0  0  0
    3.9433   -4.4455    0.0000 O   0  0  0  0  0  0  0  0  0  0  0  0
    2.7184   -2.7184    0.0000 C   0  0  0  0  0  0  0  0  0  0  0  0
    1.4712   -3.5517    0.0000 C   0  0  0  0  0  0  0  0  0  0  0  0
    2.0452   -4.9376    0.0000 O   0  0  0  0  0  0  0  0  0  0  0  0
   -0.0000   -3.8444    0.0000 O   0  0  0  0  0  0  0  0  0  0  0  0
   -1.4712   -3.5517    0.0000 C   0  0  0  0  0  0  0  0  0  0  0  0
   -2.0452   -4.9376    0.0000 C   0  0  0  0  0  0  0  0  0  0  0  0
   -2.7184   -2.7184    0.0000 C   0  0  0  0  0  0  0  0  0  0  0  0
   -3.5517   -1.4712    0.0000 C   0  0  0  0  0  0  0  0  0  0  0  0
   -3.8444    0.0000    0.0000 C   0  0  0  0  0  0  0  0  0  0  0  0
   -3.5517    1.4712    0.0000 C   0  0  0  0  0  0  0  0  0  0  0  0
   -2.7184    2.7184    0.0000 C   0  0  0  0  0  0  0  0  0  0  0  0
   -1.4712    3.5517    0.0000 C   0  0  0  0  0  0  0  0  0  0  0  0
   -2.0452    4.9376    0.0000 O   0  0  0  0  0  0  0  0  0  0  0  0
   -0.0000    3.8444    0.0000 C   0  0  0  0  0  0  0  0  0  0  0  0
    0.0000    5.3444    0.0000 C   0  0  0  0  0  0  0  0  0  0  0  0
    1.4712    3.5517    0.0000 C   0  0  0  0  0  0  0  0  0  0  0  0
    2.7184    2.7184    0.0000 C   0  0  0  0  0  0  0  0  0  0  0  0
    3.7790    3.7790    0.0000 C   0  0  0  0  0  0  0  0  0  0  0  0
    5.2279    3.3908    0.0000 C   0  0  0  0  0  0  0  0  0  0  0  0
    6.2886    4.4515    0.0000 O   0  0  0  0  0  0  0  0  0  0  0  0
    3.5517    1.4712    0.0000 C   0  0  0  0  0  0  0  0  0  0  0  0
    4.9376    2.0452    0.0000 O   0  0  0  0  0  0  0  0  0  0  0  0
    6.1276    1.1321    0.0000 C   0  0  0  0  0  0  0  0  0  0  0  0
    5.9318   -0.3551    0.0000 O   0  0  0  0  0  0  0  0  0  0  0  0
    7.1218   -1.2682    0.0000 C   0  0  0  0  0  0  0  0  0  0  0  0
    6.9260   -2.7554    0.0000 C   0  0  0  0  0  0  0  0  0  0  0  0
    8.5076   -0.6942    0.0000 C   0  0  0  0  0  0  0  0  0  0  0  0
    9.6977   -1.6074    0.0000 O   0  0  0  0  0  0  0  0  0  0  0  0
   11.0835   -1.0333    0.0000 C   0  0  0  0  0  0  0  0  0  0  0  0
   12.2735   -1.9465    0.0000 C   0  0  0  0  0  0  0  0  0  0  0  0
   13.6593   -1.3725    0.0000 C   0  0  0  0  0  0  0  0  0  0  0  0
   15.1579   -1.3070    0.0000 C   0  0  0  0  0  0  0  0  0  0  0  0
   13.9840   -2.8369    0.0000 O   0  0  0  0  0  0  0  0  0  0  0  0
   13.8551    0.1147    0.0000 C   0  0  0  0  0  0  0  0  0  0  0  0
   15.2410    0.6887    0.0000 O   0  0  0  0  0  0  0  0  0  0  0  0
   15.4367    2.1759    0.0000 C   0  0  0  0  0  0  0  0  0  0  0  0
   14.2467    3.0890    0.0000 O   0  0  0  0  0  0  0  0  0  0  0  0
   16.8226    2.7499    0.0000 C   0  0  0  0  0  0  0  0  0  0  0  0
   17.0184    4.2371    0.0000 C   0  0  0  0  0  0  0  0  0  0  0  0
   18.4042    4.8111    0.0000 C   0  0  0  0  0  0  0  0  0  0  0  0
   15.8283    5.1502    0.0000 C   0  0  0  0  0  0  0  0  0  0  0  0
   12.6651    1.0279    0.0000 C   0  0  0  0  0  0  0  0  0  0  0  0
   12.8609    2.5150    0.0000 C   0  0  0  0  0  0  0  0  0  0  0  0
   11.2793    0.4538    0.0000 O   0  0  0  0  0  0  0  0  0  0  0  0
    8.7034    0.7929    0.0000 C   0  0  0  0  0  0  0  0  0  0  0  0
   10.0893    1.3670    0.0000 N   0  0  0  0  0  0  0  0  0  0  0  0
   10.2850    2.8541    0.0000 C   0  0  0  0  0  0  0  0  0  0  0  0
   11.4649    0.7689    0.0000 C   0  0  0  0  0  0  0  0  0  0  0  0
    7.5134    1.7061    0.0000 C   0  0  0  0  0  0  0  0  0  0  0  0
    7.7092    3.1933    0.0000 O   0  0  0  0  0  0  0  0  0  0  0  0
  1  2  1  0
  2  3  1  0
  3  4  1  0
  4  5  1  0
  5  6  1  0
  6  7  1  0
  6  8  2  0
  4  9  1  0
  9 10  1  0
 10 11  2  0
 10 12  1  0
 12 13  1  0
 13 14  1  0
 13 15  1  0
 15 16  1  0
 16 17  2  0
 17 18  1  0
 18 19  2  0
 19 20  1  0
 20 21  1  0
 20 22  1  0
 22 23  1  0
 22 24  1  0
 24 25  1  0
 25 26  1  0
 26 27  1  0
 27 28  2  0
 25 29  1  0
 29 30  1  0
 30 31  1  0
 31 32  1  0
 32 33  1  0
 33 34  1  0
 33 35  1  0
 35 36  1  0
 36 37  1  0
 37 38  1  0
 38 39  1  0
 39 40  1  0
 39 41  1  0
 39 42  1  0
 42 43  1  0
 43 44  1  0
 44 45  2  0
 44 46  1  0
 46 47  1  0
 47 48  1  0
 47 49  1  0
 42 50  1  0
 50 51  1  0
 50 52  1  0
 35 53  1  0
 53 54  1  0
 54 55  1  0
 54 56  1  0
 53 57  1  0
 57 58  1  0
 29  3  1  0
 57 31  1  0
 52 37  1  0
M  END
>  <ChEMBL_IDs>  (499) 
nan

>  <target_organism>  (499) 
nan

>  <target_molecule_pref_name>  (499) 
nan

>  <# Known Targets>  (499) 
nan

>  <Known Targets>  (499) 
nan

>  <smiles>  (499) 
COC1C(OC(C)=O)CC(=O)OC(C)C/C=C\C=C/C(O)C(C)CC(CC=O)C1OC1OC(C)C(OC2CC(C)(O)C(OC(=O)CC(C)C)C(C)O2)C(N(C)C)C1O

$$$$

     RDKit          2D

 58 60  0  0  0  0  0  0  0  0999 V2000
    6.0944   -1.2990    0.0000 C   0  0  0  0  0  0  0  0  0  0  0  0
    5.3444   -0.0000    0.0000 O   0  0  0  0  0  0  0  0  0  0  0  0
    3.8444   -0.0000    0.0000 C   0  0  0  0  0  0  0  0  0  0  0  0
    3.5517   -1.4712    0.0000 C   0  0  0  0  0  0  0  0  0  0  0  0
    4.9376   -2.0452    0.0000 O   0  0  0  0  0  0  0  0  0  0  0  0
    5.1333   -3.5324    0.0000 C   0  0  0  0  0  0  0  0  0  0  0  0
    6.5192   -4.1064    0.0000 C   0  0  0  0  0  0  0  0  0  0  0  0
    3.9433   -4.4455    0.0000 O   0  0  0  0  0  0  0  0  0  0  0  0
    2.7184   -2.7184    0.0000 C   0  0  0  0  0  0  0  0  0  0  0  0
    1.4712   -3.5517    0.0000 C   0  0  0  0  0  0  0  0  0  0  0  0
    2.0452   -4.9376    0.0000 O   0  0  0  0  0  0  0  0  0  0  0  0
   -0.0000   -3.8444    0.0000 O   0  0  0  0  0  0  0  0  0  0  0  0
   -1.4712   -3.5517    0.0000 C   0  0  0  0  0  0  0  0  0  0  0  0
   -2.0452   -4.9376    0.0000 C   0  0  0  0  0  0  0  0  0  0  0  0
   -2.7184   -2.7184    0.0000 C   0  0  0  0  0  0  0  0  0  0  0  0
   -3.5517   -1.4712    0.0000 C   0  0  0  0  0  0  0  0  0  0  0  0
   -3.8444    0.0000    0.0000 C   0  0  0  0  0  0  0  0  0  0  0  0
   -3.5517    1.4712    0.0000 C   0  0  0  0  0  0  0  0  0  0  0  0
   -2.7184    2.7184    0.0000 C   0  0  0  0  0  0  0  0  0  0  0  0
   -1.4712    3.5517    0.0000 C   0  0  0  0  0  0  0  0  0  0  0  0
   -2.0452    4.9376    0.0000 O   0  0  0  0  0  0  0  0  0  0  0  0
   -0.0000    3.8444    0.0000 C   0  0  0  0  0  0  0  0  0  0  0  0
    0.0000    5.3444    0.0000 C   0  0  0  0  0  0  0  0  0  0  0  0
    1.4712    3.5517    0.0000 C   0  0  0  0  0  0  0  0  0  0  0  0
    2.7184    2.7184    0.0000 C   0  0  0  0  0  0  0  0  0  0  0  0
    3.7790    3.7790    0.0000 C   0  0  0  0  0  0  0  0  0  0  0  0
    5.2279    3.3908    0.0000 C   0  0  0  0  0  0  0  0  0  0  0  0
    6.2886    4.4515    0.0000 O   0  0  0  0  0  0  0  0  0  0  0  0
    3.5517    1.4712    0.0000 C   0  0  0  0  0  0  0  0  0  0  0  0
    4.9376    2.0452    0.0000 O   0  0  0  0  0  0  0  0  0  0  0  0
    6.1276    1.1321    0.0000 C   0  0  0  0  0  0  0  0  0  0  0  0
    5.9318   -0.3551    0.0000 O   0  0  0  0  0  0  0  0  0  0  0  0
    7.1218   -1.2682    0.0000 C   0  0  0  0  0  0  0  0  0  0  0  0
    6.9260   -2.7554    0.0000 C   0  0  0  0  0  0  0  0  0  0  0  0
    8.5076   -0.6942    0.0000 C   0  0  0  0  0  0  0  0  0  0  0  0
    9.6977   -1.6074    0.0000 O   0  0  0  0  0  0  0  0  0  0  0  0
   11.0835   -1.0333    0.0000 C   0  0  0  0  0  0  0  0  0  0  0  0
   12.2735   -1.9465    0.0000 C   0  0  0  0  0  0  0  0  0  0  0  0
   13.6593   -1.3725    0.0000 C   0  0  0  0  0  0  0  0  0  0  0  0
   15.1579   -1.3070    0.0000 C   0  0  0  0  0  0  0  0  0  0  0  0
   13.9840   -2.8369    0.0000 O   0  0  0  0  0  0  0  0  0  0  0  0
   13.8551    0.1147    0.0000 C   0  0  0  0  0  0  0  0  0  0  0  0
   15.2410    0.6887    0.0000 O   0  0  0  0  0  0  0  0  0  0  0  0
   15.4367    2.1759    0.0000 C   0  0  0  0  0  0  0  0  0  0  0  0
   14.2467    3.0890    0.0000 O   0  0  0  0  0  0  0  0  0  0  0  0
   16.8226    2.7499    0.0000 C   0  0  0  0  0  0  0  0  0  0  0  0
   17.0184    4.2371    0.0000 C   0  0  0  0  0  0  0  0  0  0  0  0
   18.4042    4.8111    0.0000 C   0  0  0  0  0  0  0  0  0  0  0  0
   15.8283    5.1502    0.0000 C   0  0  0  0  0  0  0  0  0  0  0  0
   12.6651    1.0279    0.0000 C   0  0  0  0  0  0  0  0  0  0  0  0
   12.8609    2.5150    0.0000 C   0  0  0  0  0  0  0  0  0  0  0  0
   11.2793    0.4538    0.0000 O   0  0  0  0  0  0  0  0  0  0  0  0
    8.7034    0.7929    0.0000 C   0  0  0  0  0  0  0  0  0  0  0  0
   10.0893    1.3670    0.0000 N   0  0  0  0  0  0  0  0  0  0  0  0
   10.2850    2.8541    0.0000 C   0  0  0  0  0  0  0  0  0  0  0  0
   11.4649    0.7689    0.0000 C   0  0  0  0  0  0  0  0  0  0  0  0
    7.5134    1.7061    0.0000 C   0  0  0  0  0  0  0  0  0  0  0  0
    7.7092    3.1933    0.0000 O   0  0  0  0  0  0  0  0  0  0  0  0
  1  2  1  0
  2  3  1  0
  3  4  1  0
  4  5  1  0
  5  6  1  0
  6  7  1  0
  6  8  2  0
  4  9  1  0
  9 10  1  0
 10 11  2  0
 10 12  1  0
 12 13  1  0
 13 14  1  0
 13 15  1  0
 15 16  1  0
 16 17  2  0
 17 18  1  0
 18 19  2  0
 19 20  1  0
 20 21  1  0
 20 22  1  0
 22 23  1  0
 22 24  1  0
 24 25  1  0
 25 26  1  0
 26 27  1  0
 27 28  2  0
 25 29  1  0
 29 30  1  0
 30 31  1  0
 31 32  1  0
 32 33  1  0
 33 34  1  0
 33 35  1  0
 35 36  1  0
 36 37  1  0
 37 38  1  0
 38 39  1  0
 39 40  1  0
 39 41  1  0
 39 42  1  0
 42 43  1  0
 43 44  1  0
 44 45  2  0
 44 46  1  0
 46 47  1  0
 47 48  1  0
 47 49  1  0
 42 50  1  0
 50 51  1  0
 50 52  1  0
 35 53  1  0
 53 54  1  0
 54 55  1  0
 54 56  1  0
 53 57  1  0
 57 58  1  0
 29  3  1  0
 57 31  1  0
 52 37  1  0
M  END
>  <ChEMBL_IDs>  (500) 
nan

>  <target_organism>  (500) 
nan

>  <target_molecule_pref_name>  (500) 
nan

>  <# Known Targets>  (500) 
nan

>  <Known Targets>  (500) 
nan

>  <smiles>  (500) 
COC1C(OC(C)=O)CC(=O)OC(C)C/C=C\C=C/C(O)C(C)CC(CC=O)C1OC1OC(C)C(OC2CC(C)(O)C(OC(=O)CC(C)C)C(C)O2)C(N(C)C)C1O

$$$$

     RDKit          2D

 58 60  0  0  0  0  0  0  0  0999 V2000
    6.0944   -1.2990    0.0000 C   0  0  0  0  0  0  0  0  0  0  0  0
    5.3444   -0.0000    0.0000 O   0  0  0  0  0  0  0  0  0  0  0  0
    3.8444   -0.0000    0.0000 C   0  0  0  0  0  0  0  0  0  0  0  0
    3.5517   -1.4712    0.0000 C   0  0  0  0  0  0  0  0  0  0  0  0
    4.9376   -2.0452    0.0000 O   0  0  0  0  0  0  0  0  0  0  0  0
    5.1333   -3.5324    0.0000 C   0  0  0  0  0  0  0  0  0  0  0  0
    6.5192   -4.1064    0.0000 C   0  0  0  0  0  0  0  0  0  0  0  0
    3.9433   -4.4455    0.0000 O   0  0  0  0  0  0  0  0  0  0  0  0
    2.7184   -2.7184    0.0000 C   0  0  0  0  0  0  0  0  0  0  0  0
    1.4712   -3.5517    0.0000 C   0  0  0  0  0  0  0  0  0  0  0  0
    2.0452   -4.9376    0.0000 O   0  0  0  0  0  0  0  0  0  0  0  0
   -0.0000   -3.8444    0.0000 O   0  0  0  0  0  0  0  0  0  0  0  0
   -1.4712   -3.5517    0.0000 C   0  0  0  0  0  0  0  0  0  0  0  0
   -2.0452   -4.9376    0.0000 C   0  0  0  0  0  0  0  0  0  0  0  0
   -2.7184   -2.7184    0.0000 C   0  0  0  0  0  0  0  0  0  0  0  0
   -3.5517   -1.4712    0.0000 C   0  0  0  0  0  0  0  0  0  0  0  0
   -3.8444    0.0000    0.0000 C   0  0  0  0  0  0  0  0  0  0  0  0
   -3.5517    1.4712    0.0000 C   0  0  0  0  0  0  0  0  0  0  0  0
   -2.7184    2.7184    0.0000 C   0  0  0  0  0  0  0  0  0  0  0  0
   -1.4712    3.5517    0.0000 C   0  0  0  0  0  0  0  0  0  0  0  0
   -2.0452    4.9376    0.0000 O   0  0  0  0  0  0  0  0  0  0  0  0
   -0.0000    3.8444    0.0000 C   0  0  0  0  0  0  0  0  0  0  0  0
    0.0000    5.3444    0.0000 C   0  0  0  0  0  0  0  0  0  0  0  0
    1.4712    3.5517    0.0000 C   0  0  0  0  0  0  0  0  0  0  0  0
    2.7184    2.7184    0.0000 C   0  0  0  0  0  0  0  0  0  0  0  0
    3.7790    3.7790    0.0000 C   0  0  0  0  0  0  0  0  0  0  0  0
    5.2279    3.3908    0.0000 C   0  0  0  0  0  0  0  0  0  0  0  0
    6.2886    4.4515    0.0000 O   0  0  0  0  0  0  0  0  0  0  0  0
    3.5517    1.4712    0.0000 C   0  0  0  0  0  0  0  0  0  0  0  0
    4.9376    2.0452    0.0000 O   0  0  0  0  0  0  0  0  0  0  0  0
    6.1276    1.1321    0.0000 C   0  0  0  0  0  0  0  0  0  0  0  0
    5.9318   -0.3551    0.0000 O   0  0  0  0  0  0  0  0  0  0  0  0
    7.1218   -1.2682    0.0000 C   0  0  0  0  0  0  0  0  0  0  0  0
    6.9260   -2.7554    0.0000 C   0  0  0  0  0  0  0  0  0  0  0  0
    8.5076   -0.6942    0.0000 C   0  0  0  0  0  0  0  0  0  0  0  0
    9.6977   -1.6074    0.0000 O   0  0  0  0  0  0  0  0  0  0  0  0
   11.0835   -1.0333    0.0000 C   0  0  0  0  0  0  0  0  0  0  0  0
   12.2735   -1.9465    0.0000 C   0  0  0  0  0  0  0  0  0  0  0  0
   13.6593   -1.3725    0.0000 C   0  0  0  0  0  0  0  0  0  0  0  0
   15.1579   -1.3070    0.0000 C   0  0  0  0  0  0  0  0  0  0  0  0
   13.9840   -2.8369    0.0000 O   0  0  0  0  0  0  0  0  0  0  0  0
   13.8551    0.1147    0.0000 C   0  0  0  0  0  0  0  0  0  0  0  0
   15.2410    0.6887    0.0000 O   0  0  0  0  0  0  0  0  0  0  0  0
   15.4367    2.1759    0.0000 C   0  0  0  0  0  0  0  0  0  0  0  0
   14.2467    3.0890    0.0000 O   0  0  0  0  0  0  0  0  0  0  0  0
   16.8226    2.7499    0.0000 C   0  0  0  0  0  0  0  0  0  0  0  0
   17.0184    4.2371    0.0000 C   0  0  0  0  0  0  0  0  0  0  0  0
   18.4042    4.8111    0.0000 C   0  0  0  0  0  0  0  0  0  0  0  0
   15.8283    5.1502    0.0000 C   0  0  0  0  0  0  0  0  0  0  0  0
   12.6651    1.0279    0.0000 C   0  0  0  0  0  0  0  0  0  0  0  0
   12.8609    2.5150    0.0000 C   0  0  0  0  0  0  0  0  0  0  0  0
   11.2793    0.4538    0.0000 O   0  0  0  0  0  0  0  0  0  0  0  0
    8.7034    0.7929    0.0000 C   0  0  0  0  0  0  0  0  0  0  0  0
   10.0893    1.3670    0.0000 N   0  0  0  0  0  0  0  0  0  0  0  0
   10.2850    2.8541    0.0000 C   0  0  0  0  0  0  0  0  0  0  0  0
   11.4649    0.7689    0.0000 C   0  0  0  0  0  0  0  0  0  0  0  0
    7.5134    1.7061    0.0000 C   0  0  0  0  0  0  0  0  0  0  0  0
    7.7092    3.1933    0.0000 O   0  0  0  0  0  0  0  0  0  0  0  0
  1  2  1  0
  2  3  1  0
  3  4  1  0
  4  5  1  0
  5  6  1  0
  6  7  1  0
  6  8  2  0
  4  9  1  0
  9 10  1  0
 10 11  2  0
 10 12  1  0
 12 13  1  0
 13 14  1  0
 13 15  1  0
 15 16  1  0
 16 17  2  0
 17 18  1  0
 18 19  2  0
 19 20  1  0
 20 21  2  0
 20 22  1  0
 22 23  1  0
 22 24  1  0
 24 25  1  0
 25 26  1  0
 26 27  1  0
 27 28  1  0
 25 29  1  0
 29 30  1  0
 30 31  1  0
 31 32  1  0
 32 33  1  0
 33 34  1  0
 33 35  1  0
 35 36  1  0
 36 37  1  0
 37 38  1  0
 38 39  1  0
 39 40  1  0
 39 41  1  0
 39 42  1  0
 42 43  1  0
 43 44  1  0
 44 45  2  0
 44 46  1  0
 46 47  1  0
 47 48  1  0
 47 49  1  0
 42 50  1  0
 50 51  1  0
 50 52  1  0
 35 53  1  0
 53 54  1  0
 54 55  1  0
 54 56  1  0
 53 57  1  0
 57 58  1  0
 29  3  1  0
 57 31  1  0
 52 37  1  0
M  END
>  <ChEMBL_IDs>  (501) 
nan

>  <target_organism>  (501) 
nan

>  <target_molecule_pref_name>  (501) 
nan

>  <# Known Targets>  (501) 
nan

>  <Known Targets>  (501) 
nan

>  <smiles>  (501) 
COC1C(OC(C)=O)CC(=O)OC(C)C/C=C\C=C/C(=O)C(C)CC(CCO)C1OC1OC(C)C(OC2CC(C)(O)C(OC(=O)CC(C)C)C(C)O2)C(N(C)C)C1O

$$$$

     RDKit          2D

 58 60  0  0  0  0  0  0  0  0999 V2000
    6.0944   -1.2990    0.0000 C   0  0  0  0  0  0  0  0  0  0  0  0
    5.3444   -0.0000    0.0000 O   0  0  0  0  0  0  0  0  0  0  0  0
    3.8444   -0.0000    0.0000 C   0  0  0  0  0  0  0  0  0  0  0  0
    3.5517   -1.4712    0.0000 C   0  0  0  0  0  0  0  0  0  0  0  0
    4.9376   -2.0452    0.0000 O   0  0  0  0  0  0  0  0  0  0  0  0
    5.1333   -3.5324    0.0000 C   0  0  0  0  0  0  0  0  0  0  0  0
    6.5192   -4.1064    0.0000 C   0  0  0  0  0  0  0  0  0  0  0  0
    3.9433   -4.4455    0.0000 O   0  0  0  0  0  0  0  0  0  0  0  0
    2.7184   -2.7184    0.0000 C   0  0  0  0  0  0  0  0  0  0  0  0
    1.4712   -3.5517    0.0000 C   0  0  0  0  0  0  0  0  0  0  0  0
    2.0452   -4.9376    0.0000 O   0  0  0  0  0  0  0  0  0  0  0  0
   -0.0000   -3.8444    0.0000 O   0  0  0  0  0  0  0  0  0  0  0  0
   -1.4712   -3.5517    0.0000 C   0  0  0  0  0  0  0  0  0  0  0  0
   -2.0452   -4.9376    0.0000 C   0  0  0  0  0  0  0  0  0  0  0  0
   -2.7184   -2.7184    0.0000 C   0  0  0  0  0  0  0  0  0  0  0  0
   -3.5517   -1.4712    0.0000 C   0  0  0  0  0  0  0  0  0  0  0  0
   -3.8444    0.0000    0.0000 C   0  0  0  0  0  0  0  0  0  0  0  0
   -3.5517    1.4712    0.0000 C   0  0  0  0  0  0  0  0  0  0  0  0
   -2.7184    2.7184    0.0000 C   0  0  0  0  0  0  0  0  0  0  0  0
   -1.4712    3.5517    0.0000 C   0  0  0  0  0  0  0  0  0  0  0  0
   -2.0452    4.9376    0.0000 O   0  0  0  0  0  0  0  0  0  0  0  0
   -0.0000    3.8444    0.0000 C   0  0  0  0  0  0  0  0  0  0  0  0
    0.0000    5.3444    0.0000 C   0  0  0  0  0  0  0  0  0  0  0  0
    1.4712    3.5517    0.0000 C   0  0  0  0  0  0  0  0  0  0  0  0
    2.7184    2.7184    0.0000 C   0  0  0  0  0  0  0  0  0  0  0  0
    3.7790    3.7790    0.0000 C   0  0  0  0  0  0  0  0  0  0  0  0
    5.2279    3.3908    0.0000 C   0  0  0  0  0  0  0  0  0  0  0  0
    6.2886    4.4515    0.0000 O   0  0  0  0  0  0  0  0  0  0  0  0
    3.5517    1.4712    0.0000 C   0  0  0  0  0  0  0  0  0  0  0  0
    4.9376    2.0452    0.0000 O   0  0  0  0  0  0  0  0  0  0  0  0
    6.1276    1.1321    0.0000 C   0  0  0  0  0  0  0  0  0  0  0  0
    5.9318   -0.3551    0.0000 O   0  0  0  0  0  0  0  0  0  0  0  0
    7.1218   -1.2682    0.0000 C   0  0  0  0  0  0  0  0  0  0  0  0
    6.9260   -2.7554    0.0000 C   0  0  0  0  0  0  0  0  0  0  0  0
    8.5076   -0.6942    0.0000 C   0  0  0  0  0  0  0  0  0  0  0  0
    9.6977   -1.6074    0.0000 O   0  0  0  0  0  0  0  0  0  0  0  0
   11.0835   -1.0333    0.0000 C   0  0  0  0  0  0  0  0  0  0  0  0
   12.2735   -1.9465    0.0000 C   0  0  0  0  0  0  0  0  0  0  0  0
   13.6593   -1.3725    0.0000 C   0  0  0  0  0  0  0  0  0  0  0  0
   15.1579   -1.3070    0.0000 C   0  0  0  0  0  0  0  0  0  0  0  0
   13.9840   -2.8369    0.0000 O   0  0  0  0  0  0  0  0  0  0  0  0
   12.8781   -3.8503    0.0000 C   0  0  0  0  0  0  0  0  0  0  0  0
   11.4475   -3.3992    0.0000 O   0  0  0  0  0  0  0  0  0  0  0  0
   13.2027   -5.3147    0.0000 C   0  0  0  0  0  0  0  0  0  0  0  0
   12.0968   -6.3281    0.0000 C   0  0  0  0  0  0  0  0  0  0  0  0
   12.4215   -7.7926    0.0000 C   0  0  0  0  0  0  0  0  0  0  0  0
   10.6663   -5.8771    0.0000 C   0  0  0  0  0  0  0  0  0  0  0  0
   13.8551    0.1147    0.0000 C   0  0  0  0  0  0  0  0  0  0  0  0
   15.2410    0.6887    0.0000 O   0  0  0  0  0  0  0  0  0  0  0  0
   12.6651    1.0279    0.0000 C   0  0  0  0  0  0  0  0  0  0  0  0
   12.8609    2.5150    0.0000 C   0  0  0  0  0  0  0  0  0  0  0  0
   11.2793    0.4538    0.0000 O   0  0  0  0  0  0  0  0  0  0  0  0
    8.7034    0.7929    0.0000 C   0  0  0  0  0  0  0  0  0  0  0  0
   10.0893    1.3670    0.0000 N   0  0  0  0  0  0  0  0  0  0  0  0
   10.2850    2.8541    0.0000 C   0  0  0  0  0  0  0  0  0  0  0  0
   11.4649    0.7689    0.0000 C   0  0  0  0  0  0  0  0  0  0  0  0
    7.5134    1.7061    0.0000 C   0  0  0  0  0  0  0  0  0  0  0  0
    7.7092    3.1933    0.0000 O   0  0  0  0  0  0  0  0  0  0  0  0
  1  2  1  0
  2  3  1  0
  3  4  1  0
  4  5  1  0
  5  6  1  0
  6  7  1  0
  6  8  2  0
  4  9  1  0
  9 10  1  0
 10 11  2  0
 10 12  1  0
 12 13  1  0
 13 14  1  0
 13 15  1  0
 15 16  1  0
 16 17  2  0
 17 18  1  0
 18 19  2  0
 19 20  1  0
 20 21  1  0
 20 22  1  0
 22 23  1  0
 22 24  1  0
 24 25  1  0
 25 26  1  0
 26 27  1  0
 27 28  2  0
 25 29  1  0
 29 30  1  0
 30 31  1  0
 31 32  1  0
 32 33  1  0
 33 34  1  0
 33 35  1  0
 35 36  1  0
 36 37  1  0
 37 38  1  0
 38 39  1  0
 39 40  1  0
 39 41  1  0
 41 42  1  0
 42 43  2  0
 42 44  1  0
 44 45  1  0
 45 46  1  0
 45 47  1  0
 39 48  1  0
 48 49  1  0
 48 50  1  0
 50 51  1  0
 50 52  1  0
 35 53  1  0
 53 54  1  0
 54 55  1  0
 54 56  1  0
 53 57  1  0
 57 58  1  0
 29  3  1  0
 57 31  1  0
 52 37  1  0
M  END
>  <ChEMBL_IDs>  (502) 
nan

>  <target_organism>  (502) 
nan

>  <target_molecule_pref_name>  (502) 
nan

>  <# Known Targets>  (502) 
nan

>  <Known Targets>  (502) 
nan

>  <smiles>  (502) 
COC1C(OC(C)=O)CC(=O)OC(C)C/C=C\C=C/C(O)C(C)CC(CC=O)C1OC1OC(C)C(OC2CC(C)(OC(=O)CC(C)C)C(O)C(C)O2)C(N(C)C)C1O

$$$$

     RDKit          2D

 58 60  0  0  0  0  0  0  0  0999 V2000
    6.0944   -1.2990    0.0000 C   0  0  0  0  0  0  0  0  0  0  0  0
    5.3444    0.0000    0.0000 O   0  0  0  0  0  0  0  0  0  0  0  0
    3.8444    0.0000    0.0000 C   0  0  0  0  0  0  0  0  0  0  0  0
    3.5517   -1.4712    0.0000 C   0  0  0  0  0  0  0  0  0  0  0  0
    4.9376   -2.0452    0.0000 O   0  0  0  0  0  0  0  0  0  0  0  0
    5.1333   -3.5324    0.0000 C   0  0  0  0  0  0  0  0  0  0  0  0
    3.9433   -4.4455    0.0000 O   0  0  0  0  0  0  0  0  0  0  0  0
    4.1391   -5.9327    0.0000 C   0  0  0  0  0  0  0  0  0  0  0  0
    2.9491   -6.8458    0.0000 C   0  0  0  0  0  0  0  0  0  0  0  0
    5.5249   -6.5067    0.0000 C   0  0  0  0  0  0  0  0  0  0  0  0
    5.7207   -7.9939    0.0000 O   0  0  0  0  0  0  0  0  0  0  0  0
    4.5307   -8.9070    0.0000 C   0  0  0  0  0  0  0  0  0  0  0  0
    3.1449   -8.3330    0.0000 C   0  0  0  0  0  0  0  0  0  0  0  0
    1.9548   -9.2461    0.0000 C   0  0  0  0  0  0  0  0  0  0  0  0
    0.5243   -9.6972    0.0000 C   0  0  0  0  0  0  0  0  0  0  0  0
    1.2622   -7.9156    0.0000 O   0  0  0  0  0  0  0  0  0  0  0  0
   -0.2364   -7.8502    0.0000 C   0  0  0  0  0  0  0  0  0  0  0  0
   -1.0423   -9.1153    0.0000 O   0  0  0  0  0  0  0  0  0  0  0  0
   -0.9290   -6.5197    0.0000 C   0  0  0  0  0  0  0  0  0  0  0  0
   -2.4276   -6.4542    0.0000 C   0  0  0  0  0  0  0  0  0  0  0  0
   -3.1202   -5.1237    0.0000 C   0  0  0  0  0  0  0  0  0  0  0  0
   -3.2335   -7.7193    0.0000 C   0  0  0  0  0  0  0  0  0  0  0  0
    2.1506  -10.7333    0.0000 C   0  0  0  0  0  0  0  0  0  0  0  0
    0.9606  -11.6464    0.0000 O   0  0  0  0  0  0  0  0  0  0  0  0
    3.5364  -11.3073    0.0000 C   0  0  0  0  0  0  0  0  0  0  0  0
    3.7322  -12.7945    0.0000 C   0  0  0  0  0  0  0  0  0  0  0  0
    4.7265  -10.3942    0.0000 O   0  0  0  0  0  0  0  0  0  0  0  0
    6.7150   -5.5936    0.0000 C   0  0  0  0  0  0  0  0  0  0  0  0
    8.1008   -6.1676    0.0000 N   0  0  0  0  0  0  0  0  0  0  0  0
    8.2966   -7.6548    0.0000 C   0  0  0  0  0  0  0  0  0  0  0  0
    9.2908   -5.2544    0.0000 C   0  0  0  0  0  0  0  0  0  0  0  0
    6.5192   -4.1064    0.0000 C   0  0  0  0  0  0  0  0  0  0  0  0
    7.7092   -3.1933    0.0000 O   0  0  0  0  0  0  0  0  0  0  0  0
    2.7184   -2.7184    0.0000 C   0  0  0  0  0  0  0  0  0  0  0  0
    3.7790   -3.7790    0.0000 C   0  0  0  0  0  0  0  0  0  0  0  0
    3.3908   -5.2279    0.0000 C   0  0  0  0  0  0  0  0  0  0  0  0
    4.1633   -6.5137    0.0000 O   0  0  0  0  0  0  0  0  0  0  0  0
    1.4712   -3.5517    0.0000 C   0  0  0  0  0  0  0  0  0  0  0  0
   -0.0000   -3.8444    0.0000 C   0  0  0  0  0  0  0  0  0  0  0  0
   -0.0000   -5.3444    0.0000 C   0  0  0  0  0  0  0  0  0  0  0  0
   -1.4712   -3.5517    0.0000 C   0  0  0  0  0  0  0  0  0  0  0  0
   -2.0452   -4.9376    0.0000 O   0  0  0  0  0  0  0  0  0  0  0  0
   -2.7184   -2.7184    0.0000 C   0  0  0  0  0  0  0  0  0  0  0  0
   -3.5517   -1.4712    0.0000 C   0  0  0  0  0  0  0  0  0  0  0  0
   -3.8444    0.0000    0.0000 C   0  0  0  0  0  0  0  0  0  0  0  0
   -3.5517    1.4712    0.0000 C   0  0  0  0  0  0  0  0  0  0  0  0
   -2.7184    2.7184    0.0000 C   0  0  0  0  0  0  0  0  0  0  0  0
   -1.4712    3.5517    0.0000 C   0  0  0  0  0  0  0  0  0  0  0  0
   -2.0452    4.9376    0.0000 C   0  0  0  0  0  0  0  0  0  0  0  0
    0.0000    3.8444    0.0000 O   0  0  0  0  0  0  0  0  0  0  0  0
    1.4712    3.5517    0.0000 C   0  0  0  0  0  0  0  0  0  0  0  0
    2.0452    4.9376    0.0000 O   0  0  0  0  0  0  0  0  0  0  0  0
    2.7184    2.7184    0.0000 C   0  0  0  0  0  0  0  0  0  0  0  0
    3.5517    1.4712    0.0000 C   0  0  0  0  0  0  0  0  0  0  0  0
    4.9376    2.0452    0.0000 O   0  0  0  0  0  0  0  0  0  0  0  0
    6.1276    1.1321    0.0000 C   0  0  0  0  0  0  0  0  0  0  0  0
    7.5134    1.7061    0.0000 C   0  0  0  0  0  0  0  0  0  0  0  0
    6.2975   -0.3583    0.0000 O   0  0  0  0  0  0  0  0  0  0  0  0
  1  2  1  0
  3  2  1  6
  3  4  1  0
  4  5  1  1
  6  5  1  1
  6  7  1  0
  7  8  1  0
  8  9  1  1
  8 10  1  0
 10 11  1  6
 12 11  1  6
 12 13  1  0
 13 14  1  0
 14 15  1  1
 14 16  1  0
 16 17  1  0
 17 18  2  0
 17 19  1  0
 19 20  1  0
 20 21  1  0
 20 22  1  0
 14 23  1  0
 23 24  1  6
 23 25  1  0
 25 26  1  1
 25 27  1  0
 10 28  1  0
 28 29  1  1
 29 30  1  0
 29 31  1  0
 28 32  1  0
 32 33  1  6
  4 34  1  0
 34 35  1  1
 35 36  1  0
 36 37  2  0
 34 38  1  0
 38 39  1  0
 39 40  1  1
 39 41  1  0
 41 42  1  1
 41 43  1  0
 43 44  2  0
 44 45  1  0
 45 46  2  0
 46 47  1  0
 47 48  1  0
 48 49  1  1
 48 50  1  0
 50 51  1  0
 51 52  2  0
 51 53  1  0
 53 54  1  0
 54 55  1  1
 55 56  1  0
 56 57  1  0
 56 58  2  0
 54  3  1  0
 32  6  1  0
 27 12  1  0
M  END
>  <ChEMBL_IDs>  (503) 
CHEMBL1599033

>  <target_organism>  (503) 
None

>  <target_molecule_pref_name>  (503) 
nan

>  <# Known Targets>  (503) 
nan

>  <Known Targets>  (503) 
nan

>  <smiles>  (503) 
CO[C@@H]1[C@@H](O[C@@H]2O[C@H](C)[C@@H](O[C@H]3C[C@@](C)(OC(=O)CC(C)C)[C@@H](O)[C@H](C)O3)[C@H](N(C)C)[C@H]2O)[C@@H](CC=O)C[C@@H](C)[C@@H](O)C=CC=CC[C@@H](C)OC(=O)C[C@H]1OC(C)=O

$$$$

     RDKit          2D

 59 61  0  0  0  0  0  0  0  0999 V2000
    6.0944   -3.8971    0.0000 C   0  0  0  0  0  0  0  0  0  0  0  0
    5.3444   -2.5981    0.0000 C   0  0  0  0  0  0  0  0  0  0  0  0
    6.0944   -1.2990    0.0000 C   0  0  0  0  0  0  0  0  0  0  0  0
    7.5944   -1.2990    0.0000 O   0  0  0  0  0  0  0  0  0  0  0  0
    5.3444   -0.0000    0.0000 O   0  0  0  0  0  0  0  0  0  0  0  0
    3.8444    0.0000    0.0000 C   0  0  0  0  0  0  0  0  0  0  0  0
    3.5517   -1.4712    0.0000 C   0  0  0  0  0  0  0  0  0  0  0  0
    2.7184   -2.7184    0.0000 C   0  0  0  0  0  0  0  0  0  0  0  0
    3.7790   -3.7790    0.0000 O   0  0  0  0  0  0  0  0  0  0  0  0
    1.4712   -3.5517    0.0000 O   0  0  0  0  0  0  0  0  0  0  0  0
   -0.0000   -3.8444    0.0000 C   0  0  0  0  0  0  0  0  0  0  0  0
   -0.0000   -5.3444    0.0000 C   0  0  0  0  0  0  0  0  0  0  0  0
   -1.4712   -3.5517    0.0000 C   0  0  0  0  0  0  0  0  0  0  0  0
   -2.7184   -2.7184    0.0000 C   0  0  0  0  0  0  0  0  0  0  0  0
   -3.5517   -1.4712    0.0000 C   0  0  0  0  0  0  0  0  0  0  0  0
   -3.8444    0.0000    0.0000 C   0  0  0  0  0  0  0  0  0  0  0  0
   -3.5517    1.4712    0.0000 C   0  0  0  0  0  0  0  0  0  0  0  0
   -2.7184    2.7184    0.0000 C   0  0  0  0  0  0  0  0  0  0  0  0
   -3.7790    3.7790    0.0000 O   0  0  0  0  0  0  0  0  0  0  0  0
   -1.4712    3.5517    0.0000 C   0  0  0  0  0  0  0  0  0  0  0  0
   -2.0452    4.9376    0.0000 C   0  0  0  0  0  0  0  0  0  0  0  0
    0.0000    3.8444    0.0000 C   0  0  0  0  0  0  0  0  0  0  0  0
    1.4712    3.5517    0.0000 C   0  0  0  0  0  0  0  0  0  0  0  0
    2.0452    4.9376    0.0000 C   0  0  0  0  0  0  0  0  0  0  0  0
    3.5324    5.1333    0.0000 C   0  0  0  0  0  0  0  0  0  0  0  0
    4.1064    6.5192    0.0000 O   0  0  0  0  0  0  0  0  0  0  0  0
    2.7184    2.7184    0.0000 C   0  0  0  0  0  0  0  0  0  0  0  0
    3.7790    3.7790    0.0000 O   0  0  0  0  0  0  0  0  0  0  0  0
    5.2279    3.3908    0.0000 C   0  0  0  0  0  0  0  0  0  0  0  0
    5.6162    1.9419    0.0000 O   0  0  0  0  0  0  0  0  0  0  0  0
    7.0650    1.5537    0.0000 C   0  0  0  0  0  0  0  0  0  0  0  0
    7.4533    0.1048    0.0000 C   0  0  0  0  0  0  0  0  0  0  0  0
    8.1257    2.6144    0.0000 C   0  0  0  0  0  0  0  0  0  0  0  0
    9.5746    2.2261    0.0000 O   0  0  0  0  0  0  0  0  0  0  0  0
    9.9628    0.7772    0.0000 C   0  0  0  0  0  0  0  0  0  0  0  0
    8.9022   -0.2834    0.0000 O   0  0  0  0  0  0  0  0  0  0  0  0
    9.2904   -1.7323    0.0000 C   0  0  0  0  0  0  0  0  0  0  0  0
    8.2297   -2.7930    0.0000 C   0  0  0  0  0  0  0  0  0  0  0  0
   10.7393   -2.1205    0.0000 C   0  0  0  0  0  0  0  0  0  0  0  0
   11.1275   -3.5694    0.0000 O   0  0  0  0  0  0  0  0  0  0  0  0
   12.5764   -3.9577    0.0000 C   0  0  0  0  0  0  0  0  0  0  0  0
   13.6371   -2.8970    0.0000 O   0  0  0  0  0  0  0  0  0  0  0  0
   12.9646   -5.4065    0.0000 C   0  0  0  0  0  0  0  0  0  0  0  0
   14.4135   -5.7948    0.0000 C   0  0  0  0  0  0  0  0  0  0  0  0
   11.9040   -6.4672    0.0000 C   0  0  0  0  0  0  0  0  0  0  0  0
   11.7999   -1.0599    0.0000 C   0  0  0  0  0  0  0  0  0  0  0  0
   13.1594   -0.4260    0.0000 C   0  0  0  0  0  0  0  0  0  0  0  0
   12.6603   -2.2886    0.0000 O   0  0  0  0  0  0  0  0  0  0  0  0
   11.4117    0.3890    0.0000 C   0  0  0  0  0  0  0  0  0  0  0  0
   12.4724    1.4497    0.0000 O   0  0  0  0  0  0  0  0  0  0  0  0
    7.7375    4.0632    0.0000 C   0  0  0  0  0  0  0  0  0  0  0  0
    8.7981    5.1239    0.0000 N   0  0  0  0  0  0  0  0  0  0  0  0
    8.4099    6.5728    0.0000 C   0  0  0  0  0  0  0  0  0  0  0  0
   10.2470    4.7357    0.0000 C   0  0  0  0  0  0  0  0  0  0  0  0
    6.2886    4.4515    0.0000 C   0  0  0  0  0  0  0  0  0  0  0  0
    5.9004    5.9004    0.0000 O   0  0  0  0  0  0  0  0  0  0  0  0
    3.5517    1.4712    0.0000 C   0  0  0  0  0  0  0  0  0  0  0  0
    4.9376    2.0452    0.0000 O   0  0  0  0  0  0  0  0  0  0  0  0
    6.1276    1.1321    0.0000 C   0  0  0  0  0  0  0  0  0  0  0  0
  1  2  1  0
  2  3  1  0
  3  4  2  0
  3  5  1  0
  5  6  1  0
  6  7  1  0
  7  8  1  0
  8  9  2  0
  8 10  1  0
 10 11  1  0
 11 12  1  0
 11 13  1  0
 13 14  1  0
 14 15  2  0
 15 16  1  0
 16 17  2  0
 17 18  1  0
 18 19  1  0
 18 20  1  0
 20 21  1  0
 20 22  1  0
 22 23  1  0
 23 24  1  0
 24 25  1  0
 25 26  2  0
 23 27  1  0
 27 28  1  0
 28 29  1  0
 29 30  1  0
 30 31  1  0
 31 32  1  0
 31 33  1  0
 33 34  1  0
 34 35  1  0
 35 36  1  0
 36 37  1  0
 37 38  1  0
 37 39  1  0
 39 40  1  0
 40 41  1  0
 41 42  2  0
 41 43  1  0
 43 44  1  0
 43 45  1  0
 39 46  1  0
 46 47  1  0
 46 48  1  0
 46 49  1  0
 49 50  1  0
 33 51  1  0
 51 52  1  0
 52 53  1  0
 52 54  1  0
 51 55  1  0
 55 56  1  0
 27 57  1  0
 57 58  1  0
 58 59  1  0
 57  6  1  0
 55 29  1  0
 49 35  1  0
M  END
>  <ChEMBL_IDs>  (504) 
nan

>  <target_organism>  (504) 
nan

>  <target_molecule_pref_name>  (504) 
nan

>  <# Known Targets>  (504) 
nan

>  <Known Targets>  (504) 
nan

>  <smiles>  (504) 
CCC(=O)OC1CC(=O)OC(C)C/C=C\C=C/C(O)C(C)CC(CC=O)C(OC2OC(C)C(OC3OC(C)C(OC(=O)C(C)C)C(C)(O)C3O)C(N(C)C)C2O)C1OC

$$$$

     RDKit          2D

 59 61  0  0  0  0  0  0  0  0999 V2000
    6.0944   -1.2990    0.0000 C   0  0  0  0  0  0  0  0  0  0  0  0
    5.3444    0.0000    0.0000 O   0  0  0  0  0  0  0  0  0  0  0  0
    3.8444    0.0000    0.0000 C   0  0  0  0  0  0  0  0  0  0  0  0
    3.5517   -1.4712    0.0000 C   0  0  0  0  0  0  0  0  0  0  0  0
    4.9376   -2.0452    0.0000 O   0  0  0  0  0  0  0  0  0  0  0  0
    5.1333   -3.5324    0.0000 C   0  0  0  0  0  0  0  0  0  0  0  0
    6.5192   -4.1064    0.0000 C   0  0  0  0  0  0  0  0  0  0  0  0
    3.9433   -4.4455    0.0000 O   0  0  0  0  0  0  0  0  0  0  0  0
    2.7184   -2.7184    0.0000 C   0  0  0  0  0  0  0  0  0  0  0  0
    1.4712   -3.5517    0.0000 C   0  0  0  0  0  0  0  0  0  0  0  0
    2.0452   -4.9376    0.0000 O   0  0  0  0  0  0  0  0  0  0  0  0
   -0.0000   -3.8444    0.0000 O   0  0  0  0  0  0  0  0  0  0  0  0
   -1.4712   -3.5517    0.0000 C   0  0  0  0  0  0  0  0  0  0  0  0
   -2.0452   -4.9376    0.0000 C   0  0  0  0  0  0  0  0  0  0  0  0
   -2.7184   -2.7184    0.0000 C   0  0  0  0  0  0  0  0  0  0  0  0
   -3.5517   -1.4712    0.0000 C   0  0  0  0  0  0  0  0  0  0  0  0
   -3.8444    0.0000    0.0000 C   0  0  0  0  0  0  0  0  0  0  0  0
   -3.5517    1.4712    0.0000 C   0  0  0  0  0  0  0  0  0  0  0  0
   -2.7184    2.7184    0.0000 C   0  0  0  0  0  0  0  0  0  0  0  0
   -1.4712    3.5517    0.0000 C   0  0  0  0  0  0  0  0  0  0  0  0
   -2.0452    4.9376    0.0000 O   0  0  0  0  0  0  0  0  0  0  0  0
    0.0000    3.8444    0.0000 C   0  0  0  0  0  0  0  0  0  0  0  0
    0.0000    5.3444    0.0000 C   0  0  0  0  0  0  0  0  0  0  0  0
    1.4712    3.5517    0.0000 C   0  0  0  0  0  0  0  0  0  0  0  0
    2.7184    2.7184    0.0000 C   0  0  0  0  0  0  0  0  0  0  0  0
    3.7790    3.7790    0.0000 C   0  0  0  0  0  0  0  0  0  0  0  0
    3.3908    5.2279    0.0000 C   0  0  0  0  0  0  0  0  0  0  0  0
    4.4515    6.2886    0.0000 N   0  0  0  0  0  0  0  0  0  0  0  0
    1.9419    5.6162    0.0000 O   0  0  0  0  0  0  0  0  0  0  0  0
    3.5517    1.4712    0.0000 C   0  0  0  0  0  0  0  0  0  0  0  0
    4.9376    2.0452    0.0000 O   0  0  0  0  0  0  0  0  0  0  0  0
    6.1276    1.1321    0.0000 C   0  0  0  0  0  0  0  0  0  0  0  0
    5.9318   -0.3551    0.0000 O   0  0  0  0  0  0  0  0  0  0  0  0
    7.1218   -1.2682    0.0000 C   0  0  0  0  0  0  0  0  0  0  0  0
    6.9260   -2.7554    0.0000 C   0  0  0  0  0  0  0  0  0  0  0  0
    8.5076   -0.6942    0.0000 C   0  0  0  0  0  0  0  0  0  0  0  0
    9.6977   -1.6074    0.0000 O   0  0  0  0  0  0  0  0  0  0  0  0
   11.0835   -1.0333    0.0000 C   0  0  0  0  0  0  0  0  0  0  0  0
   12.2735   -1.9465    0.0000 C   0  0  0  0  0  0  0  0  0  0  0  0
   13.6593   -1.3725    0.0000 C   0  0  0  0  0  0  0  0  0  0  0  0
   15.1579   -1.3070    0.0000 C   0  0  0  0  0  0  0  0  0  0  0  0
   13.9840   -2.8369    0.0000 O   0  0  0  0  0  0  0  0  0  0  0  0
   13.8551    0.1147    0.0000 C   0  0  0  0  0  0  0  0  0  0  0  0
   15.2410    0.6887    0.0000 O   0  0  0  0  0  0  0  0  0  0  0  0
   15.4367    2.1759    0.0000 C   0  0  0  0  0  0  0  0  0  0  0  0
   14.2467    3.0890    0.0000 O   0  0  0  0  0  0  0  0  0  0  0  0
   16.8226    2.7499    0.0000 C   0  0  0  0  0  0  0  0  0  0  0  0
   17.0184    4.2371    0.0000 C   0  0  0  0  0  0  0  0  0  0  0  0
   18.4042    4.8111    0.0000 C   0  0  0  0  0  0  0  0  0  0  0  0
   15.8283    5.1502    0.0000 C   0  0  0  0  0  0  0  0  0  0  0  0
   12.6651    1.0279    0.0000 C   0  0  0  0  0  0  0  0  0  0  0  0
   12.8609    2.5150    0.0000 C   0  0  0  0  0  0  0  0  0  0  0  0
   11.2793    0.4538    0.0000 O   0  0  0  0  0  0  0  0  0  0  0  0
    8.7034    0.7929    0.0000 C   0  0  0  0  0  0  0  0  0  0  0  0
   10.0893    1.3670    0.0000 N   0  0  0  0  0  0  0  0  0  0  0  0
   10.2850    2.8541    0.0000 C   0  0  0  0  0  0  0  0  0  0  0  0
   11.4649    0.7689    0.0000 C   0  0  0  0  0  0  0  0  0  0  0  0
    7.5134    1.7061    0.0000 C   0  0  0  0  0  0  0  0  0  0  0  0
    7.7092    3.1933    0.0000 O   0  0  0  0  0  0  0  0  0  0  0  0
  1  2  1  0
  2  3  1  0
  3  4  1  0
  4  5  1  0
  5  6  1  0
  6  7  1  0
  6  8  2  0
  4  9  1  0
  9 10  1  0
 10 11  2  0
 10 12  1  0
 12 13  1  0
 13 14  1  0
 13 15  1  0
 15 16  2  0
 16 17  1  0
 17 18  2  0
 18 19  1  0
 19 20  1  0
 20 21  1  0
 20 22  1  0
 22 23  1  0
 22 24  1  0
 24 25  1  0
 25 26  1  0
 26 27  1  0
 27 28  1  0
 27 29  2  0
 25 30  1  0
 30 31  1  0
 31 32  1  0
 32 33  1  0
 33 34  1  0
 34 35  1  0
 34 36  1  0
 36 37  1  0
 37 38  1  0
 38 39  1  0
 39 40  1  0
 40 41  1  0
 40 42  1  0
 40 43  1  0
 43 44  1  0
 44 45  1  0
 45 46  2  0
 45 47  1  0
 47 48  1  0
 48 49  1  0
 48 50  1  0
 43 51  1  0
 51 52  1  0
 51 53  1  0
 36 54  1  0
 54 55  1  0
 55 56  1  0
 55 57  1  0
 54 58  1  0
 58 59  1  0
 30  3  1  0
 58 32  1  0
 53 38  1  0
M  END
>  <ChEMBL_IDs>  (505) 
nan

>  <target_organism>  (505) 
nan

>  <target_molecule_pref_name>  (505) 
nan

>  <# Known Targets>  (505) 
nan

>  <Known Targets>  (505) 
nan

>  <smiles>  (505) 
COC1C(OC(C)=O)CC(=O)OC(C)/C=C\C=C\CC(O)C(C)CC(CC(N)=O)C1OC1OC(C)C(OC2CC(C)(O)C(OC(=O)CC(C)C)C(C)O2)C(N(C)C)C1O

$$$$

     RDKit          2D

 55 57  0  0  0  0  0  0  0  0999 V2000
   -5.2279    3.3908    0.0000 C   0  0  0  0  0  0  0  0  0  0  0  0
   -3.7790    3.7790    0.0000 O   0  0  0  0  0  0  0  0  0  0  0  0
   -2.7184    2.7184    0.0000 C   0  0  0  0  0  0  0  0  0  0  0  0
   -3.5517    1.4712    0.0000 C   0  0  0  0  0  0  0  0  0  0  0  0
   -3.8444   -0.0000    0.0000 C   0  0  0  0  0  0  0  0  0  0  0  0
   -5.3444   -0.0000    0.0000 C   0  0  0  0  0  0  0  0  0  0  0  0
   -3.5517   -1.4712    0.0000 C   0  0  0  0  0  0  0  0  0  0  0  0
   -2.7184   -2.7184    0.0000 C   0  0  0  0  0  0  0  0  0  0  0  0
   -3.7790   -3.7790    0.0000 C   0  0  0  0  0  0  0  0  0  0  0  0
   -1.4712   -3.5517    0.0000 C   0  0  0  0  0  0  0  0  0  0  0  0
   -2.0452   -4.9376    0.0000 O   0  0  0  0  0  0  0  0  0  0  0  0
    0.0000   -3.8444    0.0000 C   0  0  0  0  0  0  0  0  0  0  0  0
    0.0000   -5.3444    0.0000 C   0  0  0  0  0  0  0  0  0  0  0  0
    1.4712   -3.5517    0.0000 C   0  0  0  0  0  0  0  0  0  0  0  0
    2.7184   -2.7184    0.0000 C   0  0  0  0  0  0  0  0  0  0  0  0
    3.7790   -3.7790    0.0000 C   0  0  0  0  0  0  0  0  0  0  0  0
    3.5517   -1.4712    0.0000 C   0  0  0  0  0  0  0  0  0  0  0  0
    3.8444    0.0000    0.0000 C   0  0  0  0  0  0  0  0  0  0  0  0
    3.5517    1.4712    0.0000 C   0  0  0  0  0  0  0  0  0  0  0  0
    2.7184    2.7184    0.0000 C   0  0  0  0  0  0  0  0  0  0  0  0
    3.7790    3.7790    0.0000 O   0  0  0  0  0  0  0  0  0  0  0  0
    5.2279    3.3908    0.0000 C   0  0  0  0  0  0  0  0  0  0  0  0
    1.4712    3.5517    0.0000 C   0  0  0  0  0  0  0  0  0  0  0  0
    2.0452    4.9376    0.0000 C   0  0  0  0  0  0  0  0  0  0  0  0
    3.5324    5.1333    0.0000 C   0  0  0  0  0  0  0  0  0  0  0  0
    1.1321    6.1276    0.0000 C   0  0  0  0  0  0  0  0  0  0  0  0
   -0.3551    5.9318    0.0000 O   0  0  0  0  0  0  0  0  0  0  0  0
    1.7061    7.5134    0.0000 C   0  0  0  0  0  0  0  0  0  0  0  0
    0.7929    8.7034    0.0000 C   0  0  0  0  0  0  0  0  0  0  0  0
    3.1933    7.7092    0.0000 C   0  0  0  0  0  0  0  0  0  0  0  0
    3.1278    6.2106    0.0000 O   0  0  0  0  0  0  0  0  0  0  0  0
    2.7422    9.1398    0.0000 C   0  0  0  0  0  0  0  0  0  0  0  0
    3.7556   10.2457    0.0000 C   0  0  0  0  0  0  0  0  0  0  0  0
    3.3045   11.6763    0.0000 O   0  0  0  0  0  0  0  0  0  0  0  0
    4.3179   12.7822    0.0000 C   0  0  0  0  0  0  0  0  0  0  0  0
    5.7824   12.4575    0.0000 O   0  0  0  0  0  0  0  0  0  0  0  0
    6.7957   13.5634    0.0000 C   0  0  0  0  0  0  0  0  0  0  0  0
    8.2602   13.2388    0.0000 C   0  0  0  0  0  0  0  0  0  0  0  0
    6.3447   14.9940    0.0000 C   0  0  0  0  0  0  0  0  0  0  0  0
    7.3581   16.0999    0.0000 O   0  0  0  0  0  0  0  0  0  0  0  0
    4.8802   15.3187    0.0000 C   0  0  0  0  0  0  0  0  0  0  0  0
    4.4292   16.7492    0.0000 O   0  0  0  0  0  0  0  0  0  0  0  0
    3.8668   14.2128    0.0000 C   0  0  0  0  0  0  0  0  0  0  0  0
    2.4024   14.5374    0.0000 O   0  0  0  0  0  0  0  0  0  0  0  0
    1.9513   15.9680    0.0000 C   0  0  0  0  0  0  0  0  0  0  0  0
    5.2200    9.9210    0.0000 C   0  0  0  0  0  0  0  0  0  0  0  0
    6.2334   11.0269    0.0000 C   0  0  0  0  0  0  0  0  0  0  0  0
    5.6711    8.4905    0.0000 C   0  0  0  0  0  0  0  0  0  0  0  0
    7.1355    8.1658    0.0000 C   0  0  0  0  0  0  0  0  0  0  0  0
    7.5866    6.7352    0.0000 C   0  0  0  0  0  0  0  0  0  0  0  0
    8.1489    9.2717    0.0000 C   0  0  0  0  0  0  0  0  0  0  0  0
    4.6577    7.3845    0.0000 O   0  0  0  0  0  0  0  0  0  0  0  0
    0.0000    3.8444    0.0000 O   0  0  0  0  0  0  0  0  0  0  0  0
   -1.4712    3.5517    0.0000 C   0  0  0  0  0  0  0  0  0  0  0  0
   -2.0452    4.9376    0.0000 O   0  0  0  0  0  0  0  0  0  0  0  0
  1  2  1  0
  2  3  1  0
  3  4  2  0
  4  5  1  0
  5  6  1  0
  5  7  2  0
  7  8  1  0
  8  9  1  0
  8 10  1  0
 10 11  1  0
 10 12  1  0
 12 13  1  0
 12 14  1  0
 14 15  1  0
 15 16  1  0
 15 17  2  0
 17 18  1  0
 18 19  2  0
 19 20  1  0
 20 21  1  0
 21 22  1  0
 20 23  1  0
 23 24  1  0
 24 25  1  0
 24 26  1  0
 26 27  1  0
 26 28  1  0
 28 29  1  0
 28 30  1  0
 30 31  1  0
 30 32  1  0
 32 33  1  0
 33 34  1  0
 34 35  1  0
 35 36  1  0
 36 37  1  0
 37 38  1  0
 37 39  1  0
 39 40  1  0
 39 41  1  0
 41 42  1  0
 41 43  1  0
 43 44  1  0
 44 45  1  0
 33 46  1  0
 46 47  1  0
 46 48  1  0
 48 49  1  0
 49 50  1  0
 49 51  1  0
 48 52  1  0
 23 53  1  0
 53 54  1  0
 54 55  2  0
 54  3  1  0
 52 30  1  0
 43 35  1  0
M  END
>  <ChEMBL_IDs>  (506) 
nan

>  <target_organism>  (506) 
nan

>  <target_molecule_pref_name>  (506) 
nan

>  <# Known Targets>  (506) 
nan

>  <Known Targets>  (506) 
nan

>  <smiles>  (506) 
CO/C1=C/C(C)=C\C(C)C(O)C(C)C/C(C)=C\C=C/C(OC)C(C(C)C(O)C(C)C2(O)CC(OC3OC(C)C(O)C(O)C3OC)C(C)C(C(C)C)O2)OC1=O

$$$$

     RDKit          2D

 55 57  0  0  0  0  0  0  0  0999 V2000
   -5.2279    3.3908    0.0000 C   0  0  0  0  0  0  0  0  0  0  0  0
   -3.7790    3.7790    0.0000 O   0  0  0  0  0  0  0  0  0  0  0  0
   -2.7184    2.7184    0.0000 C   0  0  0  0  0  0  0  0  0  0  0  0
   -3.5517    1.4712    0.0000 C   0  0  0  0  0  0  0  0  0  0  0  0
   -3.8444   -0.0000    0.0000 C   0  0  0  0  0  0  0  0  0  0  0  0
   -5.3444   -0.0000    0.0000 C   0  0  0  0  0  0  0  0  0  0  0  0
   -3.5517   -1.4712    0.0000 C   0  0  0  0  0  0  0  0  0  0  0  0
   -2.7184   -2.7184    0.0000 C   0  0  0  0  0  0  0  0  0  0  0  0
   -3.7790   -3.7790    0.0000 C   0  0  0  0  0  0  0  0  0  0  0  0
   -1.4712   -3.5517    0.0000 C   0  0  0  0  0  0  0  0  0  0  0  0
   -2.0452   -4.9376    0.0000 O   0  0  0  0  0  0  0  0  0  0  0  0
    0.0000   -3.8444    0.0000 C   0  0  0  0  0  0  0  0  0  0  0  0
    0.0000   -5.3444    0.0000 C   0  0  0  0  0  0  0  0  0  0  0  0
    1.4712   -3.5517    0.0000 C   0  0  0  0  0  0  0  0  0  0  0  0
    2.7184   -2.7184    0.0000 C   0  0  0  0  0  0  0  0  0  0  0  0
    3.7790   -3.7790    0.0000 C   0  0  0  0  0  0  0  0  0  0  0  0
    3.5517   -1.4712    0.0000 C   0  0  0  0  0  0  0  0  0  0  0  0
    3.8444    0.0000    0.0000 C   0  0  0  0  0  0  0  0  0  0  0  0
    3.5517    1.4712    0.0000 C   0  0  0  0  0  0  0  0  0  0  0  0
    2.7184    2.7184    0.0000 C   0  0  0  0  0  0  0  0  0  0  0  0
    3.7790    3.7790    0.0000 O   0  0  0  0  0  0  0  0  0  0  0  0
    5.2279    3.3908    0.0000 C   0  0  0  0  0  0  0  0  0  0  0  0
    1.4712    3.5517    0.0000 C   0  0  0  0  0  0  0  0  0  0  0  0
    2.0452    4.9376    0.0000 C   0  0  0  0  0  0  0  0  0  0  0  0
    3.5324    5.1333    0.0000 C   0  0  0  0  0  0  0  0  0  0  0  0
    1.1321    6.1276    0.0000 C   0  0  0  0  0  0  0  0  0  0  0  0
   -0.3551    5.9318    0.0000 O   0  0  0  0  0  0  0  0  0  0  0  0
    1.7061    7.5134    0.0000 C   0  0  0  0  0  0  0  0  0  0  0  0
    0.7929    8.7034    0.0000 C   0  0  0  0  0  0  0  0  0  0  0  0
    3.1933    7.7092    0.0000 C   0  0  0  0  0  0  0  0  0  0  0  0
    3.1278    6.2106    0.0000 O   0  0  0  0  0  0  0  0  0  0  0  0
    2.7422    9.1398    0.0000 C   0  0  0  0  0  0  0  0  0  0  0  0
    3.7556   10.2457    0.0000 C   0  0  0  0  0  0  0  0  0  0  0  0
    3.3045   11.6763    0.0000 O   0  0  0  0  0  0  0  0  0  0  0  0
    4.3179   12.7822    0.0000 C   0  0  0  0  0  0  0  0  0  0  0  0
    5.7824   12.4575    0.0000 O   0  0  0  0  0  0  0  0  0  0  0  0
    6.7957   13.5634    0.0000 C   0  0  0  0  0  0  0  0  0  0  0  0
    8.2602   13.2388    0.0000 C   0  0  0  0  0  0  0  0  0  0  0  0
    6.3447   14.9940    0.0000 C   0  0  0  0  0  0  0  0  0  0  0  0
    7.3581   16.0999    0.0000 O   0  0  0  0  0  0  0  0  0  0  0  0
    4.8802   15.3187    0.0000 C   0  0  0  0  0  0  0  0  0  0  0  0
    4.4292   16.7492    0.0000 O   0  0  0  0  0  0  0  0  0  0  0  0
    3.8668   14.2128    0.0000 C   0  0  0  0  0  0  0  0  0  0  0  0
    2.4024   14.5374    0.0000 O   0  0  0  0  0  0  0  0  0  0  0  0
    1.9513   15.9680    0.0000 C   0  0  0  0  0  0  0  0  0  0  0  0
    5.2200    9.9210    0.0000 C   0  0  0  0  0  0  0  0  0  0  0  0
    6.2334   11.0269    0.0000 C   0  0  0  0  0  0  0  0  0  0  0  0
    5.6711    8.4905    0.0000 C   0  0  0  0  0  0  0  0  0  0  0  0
    7.1355    8.1658    0.0000 C   0  0  0  0  0  0  0  0  0  0  0  0
    7.5866    6.7352    0.0000 C   0  0  0  0  0  0  0  0  0  0  0  0
    8.1489    9.2717    0.0000 C   0  0  0  0  0  0  0  0  0  0  0  0
    4.6577    7.3845    0.0000 O   0  0  0  0  0  0  0  0  0  0  0  0
    0.0000    3.8444    0.0000 O   0  0  0  0  0  0  0  0  0  0  0  0
   -1.4712    3.5517    0.0000 C   0  0  0  0  0  0  0  0  0  0  0  0
   -2.0452    4.9376    0.0000 O   0  0  0  0  0  0  0  0  0  0  0  0
  1  2  1  0
  2  3  1  0
  3  4  2  0
  4  5  1  0
  5  6  1  0
  5  7  2  0
  7  8  1  0
  8  9  1  0
  8 10  1  0
 10 11  1  0
 10 12  1  0
 12 13  1  0
 12 14  1  0
 14 15  1  0
 15 16  1  0
 15 17  2  0
 17 18  1  0
 18 19  2  0
 19 20  1  0
 20 21  1  0
 21 22  1  0
 20 23  1  0
 23 24  1  0
 24 25  1  0
 24 26  1  0
 26 27  1  0
 26 28  1  0
 28 29  1  0
 28 30  1  0
 30 31  1  0
 30 32  1  0
 32 33  1  0
 33 34  1  0
 34 35  1  0
 35 36  1  0
 36 37  1  0
 37 38  1  0
 37 39  1  0
 39 40  1  0
 39 41  1  0
 41 42  1  0
 41 43  1  0
 43 44  1  0
 44 45  1  0
 33 46  1  0
 46 47  1  0
 46 48  1  0
 48 49  1  0
 49 50  1  0
 49 51  1  0
 48 52  1  0
 23 53  1  0
 53 54  1  0
 54 55  2  0
 54  3  1  0
 52 30  1  0
 43 35  1  0
M  END
>  <ChEMBL_IDs>  (507) 
nan

>  <target_organism>  (507) 
nan

>  <target_molecule_pref_name>  (507) 
nan

>  <# Known Targets>  (507) 
nan

>  <Known Targets>  (507) 
nan

>  <smiles>  (507) 
CO/C1=C/C(C)=C\C(C)C(O)C(C)C/C(C)=C\C=C/C(OC)C(C(C)C(O)C(C)C2(O)CC(OC3OC(C)C(O)C(O)C3OC)C(C)C(C(C)C)O2)OC1=O

$$$$

     RDKit          2D

 57 59  0  0  0  0  0  0  0  0999 V2000
    3.3908    5.2279    0.0000 C   0  0  0  0  0  0  0  0  0  0  0  0
    3.7790    3.7790    0.0000 C   0  0  0  0  0  0  0  0  0  0  0  0
    2.7184    2.7184    0.0000 C   0  0  0  0  0  0  0  0  0  0  0  0
    1.4712    3.5517    0.0000 C   0  0  0  0  0  0  0  0  0  0  0  0
   -0.0000    3.8444    0.0000 C   0  0  0  0  0  0  0  0  0  0  0  0
   -0.0000    5.3444    0.0000 C   0  0  0  0  0  0  0  0  0  0  0  0
   -1.4712    3.5517    0.0000 C   0  0  0  0  0  0  0  0  0  0  0  0
   -2.0452    4.9376    0.0000 O   0  0  0  0  0  0  0  0  0  0  0  0
   -2.7184    2.7184    0.0000 C   0  0  0  0  0  0  0  0  0  0  0  0
   -3.5517    1.4712    0.0000 C   0  0  0  0  0  0  0  0  0  0  0  0
   -3.8444   -0.0000    0.0000 C   0  0  0  0  0  0  0  0  0  0  0  0
   -3.5517   -1.4712    0.0000 C   0  0  0  0  0  0  0  0  0  0  0  0
   -2.7184   -2.7184    0.0000 C   0  0  0  0  0  0  0  0  0  0  0  0
   -1.4712   -3.5517    0.0000 C   0  0  0  0  0  0  0  0  0  0  0  0
   -2.0452   -4.9376    0.0000 C   0  0  0  0  0  0  0  0  0  0  0  0
    0.0000   -3.8444    0.0000 O   0  0  0  0  0  0  0  0  0  0  0  0
    1.4712   -3.5517    0.0000 C   0  0  0  0  0  0  0  0  0  0  0  0
    2.0452   -4.9376    0.0000 O   0  0  0  0  0  0  0  0  0  0  0  0
    2.7184   -2.7184    0.0000 C   0  0  0  0  0  0  0  0  0  0  0  0
    3.5517   -1.4712    0.0000 C   0  0  0  0  0  0  0  0  0  0  0  0
    4.9376   -2.0452    0.0000 O   0  0  0  0  0  0  0  0  0  0  0  0
    5.1333   -3.5324    0.0000 C   0  0  0  0  0  0  0  0  0  0  0  0
    6.5192   -4.1064    0.0000 C   0  0  0  0  0  0  0  0  0  0  0  0
    3.9433   -4.4455    0.0000 O   0  0  0  0  0  0  0  0  0  0  0  0
    3.8444   -0.0000    0.0000 C   0  0  0  0  0  0  0  0  0  0  0  0
    5.3444    0.0000    0.0000 O   0  0  0  0  0  0  0  0  0  0  0  0
    6.0944    1.2990    0.0000 C   0  0  0  0  0  0  0  0  0  0  0  0
    3.5517    1.4712    0.0000 C   0  0  0  0  0  0  0  0  0  0  0  0
    4.9376    2.0452    0.0000 O   0  0  0  0  0  0  0  0  0  0  0  0
    5.1333    3.5324    0.0000 C   0  0  0  0  0  0  0  0  0  0  0  0
    3.9433    4.4455    0.0000 O   0  0  0  0  0  0  0  0  0  0  0  0
    4.1391    5.9327    0.0000 C   0  0  0  0  0  0  0  0  0  0  0  0
    2.9491    6.8458    0.0000 C   0  0  0  0  0  0  0  0  0  0  0  0
    5.5249    6.5067    0.0000 C   0  0  0  0  0  0  0  0  0  0  0  0
    5.7207    7.9939    0.0000 O   0  0  0  0  0  0  0  0  0  0  0  0
    4.5307    8.9070    0.0000 C   0  0  0  0  0  0  0  0  0  0  0  0
    3.1449    8.3330    0.0000 C   0  0  0  0  0  0  0  0  0  0  0  0
    1.9548    9.2461    0.0000 C   0  0  0  0  0  0  0  0  0  0  0  0
    0.5243    9.6972    0.0000 C   0  0  0  0  0  0  0  0  0  0  0  0
    1.2622    7.9156    0.0000 O   0  0  0  0  0  0  0  0  0  0  0  0
    2.1506   10.7333    0.0000 C   0  0  0  0  0  0  0  0  0  0  0  0
    0.9606   11.6464    0.0000 O   0  0  0  0  0  0  0  0  0  0  0  0
    1.1564   13.1336    0.0000 C   0  0  0  0  0  0  0  0  0  0  0  0
    2.5422   13.7076    0.0000 O   0  0  0  0  0  0  0  0  0  0  0  0
   -0.0336   14.0468    0.0000 C   0  0  0  0  0  0  0  0  0  0  0  0
    0.1621   15.5339    0.0000 C   0  0  0  0  0  0  0  0  0  0  0  0
   -1.0279   16.4471    0.0000 C   0  0  0  0  0  0  0  0  0  0  0  0
    1.5480   16.1079    0.0000 C   0  0  0  0  0  0  0  0  0  0  0  0
    3.5364   11.3073    0.0000 C   0  0  0  0  0  0  0  0  0  0  0  0
    3.7322   12.7945    0.0000 C   0  0  0  0  0  0  0  0  0  0  0  0
    4.7265   10.3942    0.0000 O   0  0  0  0  0  0  0  0  0  0  0  0
    6.7150    5.5936    0.0000 C   0  0  0  0  0  0  0  0  0  0  0  0
    8.1008    6.1676    0.0000 N   0  0  0  0  0  0  0  0  0  0  0  0
    8.2966    7.6548    0.0000 C   0  0  0  0  0  0  0  0  0  0  0  0
    9.2908    5.2544    0.0000 C   0  0  0  0  0  0  0  0  0  0  0  0
    6.5192    4.1064    0.0000 C   0  0  0  0  0  0  0  0  0  0  0  0
    7.7092    3.1933    0.0000 O   0  0  0  0  0  0  0  0  0  0  0  0
  1  2  1  0
  3  2  1  6
  3  4  1  0
  4  5  1  0
  5  6  1  6
  5  7  1  0
  7  8  1  6
  7  9  1  0
  9 10  2  0
 10 11  1  0
 11 12  2  0
 12 13  1  0
 13 14  1  0
 14 15  1  6
 14 16  1  0
 16 17  1  0
 17 18  2  0
 17 19  1  0
 19 20  1  0
 20 21  1  6
 21 22  1  0
 22 23  1  0
 22 24  2  0
 20 25  1  0
 25 26  1  1
 26 27  1  0
 25 28  1  0
 28 29  1  6
 29 30  1  0
 30 31  1  0
 31 32  1  0
 32 33  1  0
 32 34  1  0
 34 35  1  0
 35 36  1  0
 36 37  1  0
 37 38  1  0
 38 39  1  0
 38 40  1  0
 38 41  1  0
 41 42  1  0
 42 43  1  0
 43 44  2  0
 43 45  1  0
 45 46  1  0
 46 47  1  0
 46 48  1  0
 41 49  1  0
 49 50  1  0
 49 51  1  0
 34 52  1  0
 52 53  1  0
 53 54  1  0
 53 55  1  0
 52 56  1  0
 56 57  1  0
 28  3  1  0
 56 30  1  0
 51 36  1  0
M  END
>  <ChEMBL_IDs>  (508) 
CHEMBL92604

>  <target_organism>  (508) 
None

>  <target_molecule_pref_name>  (508) 
nan

>  <# Known Targets>  (508) 
nan

>  <Known Targets>  (508) 
nan

>  <smiles>  (508) 
CC[C@H]1C[C@@H](C)[C@@H](O)/C=C/C=C/C[C@@H](C)OC(=O)C[C@@H](OC(C)=O)[C@H](OC)[C@H]1OC1OC(C)C(OC2CC(C)(O)C(OC(=O)CC(C)C)C(C)O2)C(N(C)C)C1O

$$$$

     RDKit          2D

 59 61  0  0  0  0  0  0  0  0999 V2000
    6.0944   -1.2990    0.0000 C   0  0  0  0  0  0  0  0  0  0  0  0
    5.3444    0.0000    0.0000 C   0  0  0  0  0  0  0  0  0  0  0  0
    3.8444    0.0000    0.0000 C   0  0  0  0  0  0  0  0  0  0  0  0
    3.5517   -1.4712    0.0000 O   0  0  0  0  0  0  0  0  0  0  0  0
    2.7184   -2.7184    0.0000 C   0  0  0  0  0  0  0  0  0  0  0  0
    3.7790   -3.7790    0.0000 O   0  0  0  0  0  0  0  0  0  0  0  0
    1.4712   -3.5517    0.0000 C   0  0  0  0  0  0  0  0  0  0  0  0
   -0.0000   -3.8444    0.0000 C   0  0  0  0  0  0  0  0  0  0  0  0
   -0.0000   -5.3444    0.0000 O   0  0  0  0  0  0  0  0  0  0  0  0
   -1.4712   -3.5517    0.0000 C   0  0  0  0  0  0  0  0  0  0  0  0
   -1.6507   -4.7534    0.0000 C   0  0  0  0  0  0  0  0  0  0  0  0
   -2.7184   -2.7184    0.0000 C   0  0  0  0  0  0  0  0  0  0  0  0
   -3.7790   -3.7790    0.0000 O   0  0  0  0  0  0  0  0  0  0  0  0
   -3.3908   -5.2279    0.0000 C   0  0  0  0  0  0  0  0  0  0  0  0
   -1.9419   -5.6162    0.0000 O   0  0  0  0  0  0  0  0  0  0  0  0
   -1.5537   -7.0650    0.0000 C   0  0  0  0  0  0  0  0  0  0  0  0
   -0.1048   -7.4533    0.0000 C   0  0  0  0  0  0  0  0  0  0  0  0
   -2.6144   -8.1257    0.0000 C   0  0  0  0  0  0  0  0  0  0  0  0
   -2.2261   -9.5746    0.0000 O   0  0  0  0  0  0  0  0  0  0  0  0
   -4.0632   -7.7375    0.0000 C   0  0  0  0  0  0  0  0  0  0  0  0
   -5.1239   -8.7981    0.0000 N   0  0  0  0  0  0  0  0  0  0  0  0
   -6.5728   -8.4099    0.0000 C   0  0  0  0  0  0  0  0  0  0  0  0
   -4.7357  -10.2470    0.0000 C   0  0  0  0  0  0  0  0  0  0  0  0
   -5.7963  -11.3077    0.0000 C   0  0  0  0  0  0  0  0  0  0  0  0
   -3.2868  -10.6353    0.0000 O   0  0  0  0  0  0  0  0  0  0  0  0
   -4.4515   -6.2886    0.0000 C   0  0  0  0  0  0  0  0  0  0  0  0
   -5.9004   -5.9004    0.0000 O   0  0  0  0  0  0  0  0  0  0  0  0
   -3.5517   -1.4712    0.0000 C   0  0  0  0  0  0  0  0  0  0  0  0
   -4.9376   -2.0452    0.0000 C   0  0  0  0  0  0  0  0  0  0  0  0
   -6.1276   -1.1321    0.0000 C   0  0  0  0  0  0  0  0  0  0  0  0
   -7.5134   -1.7061    0.0000 O   0  0  0  0  0  0  0  0  0  0  0  0
   -8.7034   -0.7929    0.0000 C   0  0  0  0  0  0  0  0  0  0  0  0
   -5.9318    0.3551    0.0000 O   0  0  0  0  0  0  0  0  0  0  0  0
   -7.1218    1.2682    0.0000 C   0  0  0  0  0  0  0  0  0  0  0  0
   -3.8444    0.0000    0.0000 C   0  0  0  0  0  0  0  0  0  0  0  0
   -3.5517    1.4712    0.0000 C   0  0  0  0  0  0  0  0  0  0  0  0
   -4.9376    2.0452    0.0000 C   0  0  0  0  0  0  0  0  0  0  0  0
   -2.7184    2.7184    0.0000 C   0  0  0  0  0  0  0  0  0  0  0  0
   -3.7790    3.7790    0.0000 O   0  0  0  0  0  0  0  0  0  0  0  0
   -1.4712    3.5517    0.0000 C   0  0  0  0  0  0  0  0  0  0  0  0
    0.0000    3.8444    0.0000 C   0  0  0  0  0  0  0  0  0  0  0  0
    1.4712    3.5517    0.0000 C   0  0  0  0  0  0  0  0  0  0  0  0
    2.0452    4.9376    0.0000 C   0  0  0  0  0  0  0  0  0  0  0  0
    2.7184    2.7184    0.0000 C   0  0  0  0  0  0  0  0  0  0  0  0
    3.5517    1.4712    0.0000 C   0  0  0  0  0  0  0  0  0  0  0  0
    4.9376    2.0452    0.0000 C   0  0  0  0  0  0  0  0  0  0  0  0
    6.1276    1.1321    0.0000 O   0  0  0  0  0  0  0  0  0  0  0  0
    7.5134    1.7061    0.0000 C   0  0  0  0  0  0  0  0  0  0  0  0
    8.7034    0.7929    0.0000 O   0  0  0  0  0  0  0  0  0  0  0  0
   10.0893    1.3670    0.0000 C   0  0  0  0  0  0  0  0  0  0  0  0
   11.2793    0.4538    0.0000 C   0  0  0  0  0  0  0  0  0  0  0  0
   10.2850    2.8541    0.0000 C   0  0  0  0  0  0  0  0  0  0  0  0
   11.6709    3.4282    0.0000 O   0  0  0  0  0  0  0  0  0  0  0  0
    9.0950    3.7673    0.0000 C   0  0  0  0  0  0  0  0  0  0  0  0
    9.2908    5.2544    0.0000 O   0  0  0  0  0  0  0  0  0  0  0  0
    8.1008    6.1676    0.0000 C   0  0  0  0  0  0  0  0  0  0  0  0
    7.7092    3.1933    0.0000 C   0  0  0  0  0  0  0  0  0  0  0  0
    6.5192    4.1064    0.0000 O   0  0  0  0  0  0  0  0  0  0  0  0
    6.7150    5.5936    0.0000 C   0  0  0  0  0  0  0  0  0  0  0  0
  1  2  1  0
  3  2  1  1
  3  4  1  0
  4  5  1  0
  5  6  2  0
  5  7  1  0
  7  8  1  0
  8  9  1  1
  8 10  1  0
 10 11  1  6
 10 12  1  0
 12 13  1  1
 13 14  1  0
 14 15  1  0
 15 16  1  0
 16 17  1  0
 16 18  1  0
 18 19  1  0
 18 20  1  0
 20 21  1  0
 21 22  1  0
 21 23  1  0
 23 24  1  0
 23 25  2  0
 20 26  1  0
 26 27  1  0
 12 28  1  0
 28 29  1  1
 29 30  1  0
 30 31  1  0
 31 32  1  0
 30 33  1  0
 33 34  1  0
 28 35  1  0
 35 36  1  0
 36 37  1  1
 36 38  1  0
 38 39  2  0
 38 40  1  0
 40 41  2  0
 41 42  1  0
 42 43  1  0
 42 44  2  0
 44 45  1  0
 45 46  1  6
 46 47  1  0
 47 48  1  0
 48 49  1  0
 49 50  1  0
 50 51  1  0
 50 52  1  0
 52 53  1  0
 52 54  1  0
 54 55  1  0
 55 56  1  0
 54 57  1  0
 57 58  1  0
 58 59  1  0
 45  3  1  0
 57 48  1  0
 26 14  1  0
M  END
>  <ChEMBL_IDs>  (509) 
CHEMBL422813

>  <target_organism>  (509) 
Rattus norvegicus

>  <target_molecule_pref_name>  (509) 
nan

>  <# Known Targets>  (509) 
nan

>  <Known Targets>  (509) 
nan

>  <smiles>  (509) 
CC[C@H]1OC(=O)C[C@@H](O)[C@H](C)[C@@H](OC2OC(C)C(O)C(N(C)C(C)=O)C2O)[C@@H](CC(OC)OC)C[C@@H](C)C(=O)/C=C/C(C)=C/[C@@H]1COC1OC(C)C(O)C(OC)C1OC

$$$$

     RDKit          2D

 57 59  0  0  0  0  0  0  0  0999 V2000
   10.6766   -5.8285    0.0000 C   0  0  0  0  0  0  0  0  0  0  0  0
    9.2908   -5.2544    0.0000 C   0  0  0  0  0  0  0  0  0  0  0  0
    9.0950   -3.7673    0.0000 C   0  0  0  0  0  0  0  0  0  0  0  0
    7.7092   -3.1933    0.0000 O   0  0  0  0  0  0  0  0  0  0  0  0
    7.5134   -1.7061    0.0000 C   0  0  0  0  0  0  0  0  0  0  0  0
    8.7034   -0.7929    0.0000 C   0  0  0  0  0  0  0  0  0  0  0  0
   10.0893   -1.3670    0.0000 N   0  0  0  0  0  0  0  0  0  0  0  0
   11.2793   -0.4538    0.0000 C   0  0  0  0  0  0  0  0  0  0  0  0
   10.2850   -2.8541    0.0000 C   0  0  0  0  0  0  0  0  0  0  0  0
    8.5076    0.6942    0.0000 C   0  0  0  0  0  0  0  0  0  0  0  0
    9.6977    1.6074    0.0000 O   0  0  0  0  0  0  0  0  0  0  0  0
    7.1218    1.2682    0.0000 C   0  0  0  0  0  0  0  0  0  0  0  0
    6.9260    2.7554    0.0000 C   0  0  0  0  0  0  0  0  0  0  0  0
    5.9318    0.3551    0.0000 O   0  0  0  0  0  0  0  0  0  0  0  0
    6.1276   -1.1321    0.0000 C   0  0  0  0  0  0  0  0  0  0  0  0
    4.9376   -2.0452    0.0000 O   0  0  0  0  0  0  0  0  0  0  0  0
    3.5517   -1.4712    0.0000 C   0  0  0  0  0  0  0  0  0  0  0  0
    3.8444    0.0000    0.0000 C   0  0  0  0  0  0  0  0  0  0  0  0
    5.0233    0.2940    0.0000 C   0  0  0  0  0  0  0  0  0  0  0  0
    3.5517    1.4712    0.0000 C   0  0  0  0  0  0  0  0  0  0  0  0
    4.9376    2.0452    0.0000 O   0  0  0  0  0  0  0  0  0  0  0  0
    2.7184    2.7184    0.0000 C   0  0  0  0  0  0  0  0  0  0  0  0
    1.4712    3.5517    0.0000 C   0  0  0  0  0  0  0  0  0  0  0  0
    2.0452    4.9376    0.0000 O   0  0  0  0  0  0  0  0  0  0  0  0
    0.0000    3.8444    0.0000 O   0  0  0  0  0  0  0  0  0  0  0  0
   -1.4712    3.5517    0.0000 C   0  0  0  0  0  0  0  0  0  0  0  0
   -2.0452    4.9376    0.0000 C   0  0  0  0  0  0  0  0  0  0  0  0
   -1.1321    6.1276    0.0000 C   0  0  0  0  0  0  0  0  0  0  0  0
   -2.7184    2.7184    0.0000 C   0  0  0  0  0  0  0  0  0  0  0  0
   -3.7790    3.7790    0.0000 C   0  0  0  0  0  0  0  0  0  0  0  0
   -3.3908    5.2279    0.0000 O   0  0  0  0  0  0  0  0  0  0  0  0
   -4.4515    6.2886    0.0000 C   0  0  0  0  0  0  0  0  0  0  0  0
   -4.0632    7.7375    0.0000 O   0  0  0  0  0  0  0  0  0  0  0  0
   -5.1239    8.7981    0.0000 C   0  0  0  0  0  0  0  0  0  0  0  0
   -4.7357   10.2470    0.0000 C   0  0  0  0  0  0  0  0  0  0  0  0
   -6.5728    8.4099    0.0000 C   0  0  0  0  0  0  0  0  0  0  0  0
   -7.6335    9.4706    0.0000 O   0  0  0  0  0  0  0  0  0  0  0  0
   -6.9610    6.9610    0.0000 C   0  0  0  0  0  0  0  0  0  0  0  0
   -8.4099    6.5728    0.0000 O   0  0  0  0  0  0  0  0  0  0  0  0
   -8.7981    5.1239    0.0000 C   0  0  0  0  0  0  0  0  0  0  0  0
   -5.9004    5.9004    0.0000 C   0  0  0  0  0  0  0  0  0  0  0  0
   -6.2886    4.4515    0.0000 O   0  0  0  0  0  0  0  0  0  0  0  0
   -7.7375    4.0632    0.0000 C   0  0  0  0  0  0  0  0  0  0  0  0
   -3.5517    1.4712    0.0000 C   0  0  0  0  0  0  0  0  0  0  0  0
   -3.8444    0.0000    0.0000 C   0  0  0  0  0  0  0  0  0  0  0  0
   -5.3444    0.0000    0.0000 C   0  0  0  0  0  0  0  0  0  0  0  0
   -3.5517   -1.4712    0.0000 C   0  0  0  0  0  0  0  0  0  0  0  0
   -2.7184   -2.7184    0.0000 C   0  0  0  0  0  0  0  0  0  0  0  0
   -1.4712   -3.5517    0.0000 C   0  0  0  0  0  0  0  0  0  0  0  0
   -2.0452   -4.9376    0.0000 O   0  0  0  0  0  0  0  0  0  0  0  0
   -0.0000   -3.8444    0.0000 C   0  0  0  0  0  0  0  0  0  0  0  0
   -0.0000   -5.3444    0.0000 C   0  0  0  0  0  0  0  0  0  0  0  0
    1.4712   -3.5517    0.0000 C   0  0  0  0  0  0  0  0  0  0  0  0
    2.7184   -2.7184    0.0000 C   0  0  0  0  0  0  0  0  0  0  0  0
    3.7790   -3.7790    0.0000 C   0  0  0  0  0  0  0  0  0  0  0  0
    3.3908   -5.2279    0.0000 C   0  0  0  0  0  0  0  0  0  0  0  0
    4.4515   -6.2886    0.0000 Cl  0  0  0  0  0  0  0  0  0  0  0  0
  1  2  1  0
  2  3  1  0
  3  4  1  0
  5  4  1  1
  5  6  1  0
  6  7  1  6
  7  8  1  0
  7  9  1  0
  6 10  1  0
 10 11  1  1
 10 12  1  0
 12 13  1  6
 12 14  1  0
 14 15  1  0
 15 16  1  6
 17 16  1  1
 17 18  1  0
 18 19  1  6
 18 20  1  0
 20 21  1  1
 20 22  1  0
 22 23  1  0
 23 24  2  0
 23 25  1  0
 25 26  1  0
 26 27  1  1
 27 28  1  0
 26 29  1  0
 29 30  1  6
 30 31  1  0
 32 31  1  1
 32 33  1  0
 33 34  1  0
 34 35  1  1
 34 36  1  0
 36 37  1  6
 36 38  1  0
 38 39  1  6
 39 40  1  0
 38 41  1  0
 41 42  1  6
 42 43  1  0
 29 44  1  0
 44 45  2  0
 45 46  1  0
 45 47  1  0
 47 48  2  0
 48 49  1  0
 49 50  2  0
 49 51  1  0
 51 52  1  1
 51 53  1  0
 53 54  1  0
 54 55  1  1
 55 56  1  0
 56 57  1  0
 15  5  1  0
 54 17  1  0
 41 32  1  0
M  END
>  <ChEMBL_IDs>  (510) 
CHEMBL44347

>  <target_organism>  (510) 
Rattus norvegicus

>  <target_molecule_pref_name>  (510) 
nan

>  <# Known Targets>  (510) 
nan

>  <Known Targets>  (510) 
nan

>  <smiles>  (510) 
CCCO[C@@H]1[C@@H](N(C)C)[C@H](O)[C@@H](C)O[C@H]1O[C@@H]1[C@@H](C)[C@H](O)CC(=O)O[C@H](CC)[C@@H](CO[C@@H]2O[C@H](C)[C@@H](O)[C@@H](OC)[C@H]2OC)/C=C(C)/C=C/C(=O)[C@H](C)C[C@@H]1CCCl

$$$$

     RDKit          2D

 58 60  0  0  0  0  0  0  0  0999 V2000
    6.0944   -1.2990    0.0000 C   0  0  0  0  0  0  0  0  0  0  0  0
    5.3444    0.0000    0.0000 O   0  0  0  0  0  0  0  0  0  0  0  0
    3.8444    0.0000    0.0000 C   0  0  0  0  0  0  0  0  0  0  0  0
    3.5517   -1.4712    0.0000 C   0  0  0  0  0  0  0  0  0  0  0  0
    4.9376   -2.0452    0.0000 O   0  0  0  0  0  0  0  0  0  0  0  0
    5.1333   -3.5324    0.0000 C   0  0  0  0  0  0  0  0  0  0  0  0
    3.9433   -4.4455    0.0000 O   0  0  0  0  0  0  0  0  0  0  0  0
    4.1391   -5.9327    0.0000 C   0  0  0  0  0  0  0  0  0  0  0  0
    2.9491   -6.8458    0.0000 C   0  0  0  0  0  0  0  0  0  0  0  0
    5.5249   -6.5067    0.0000 C   0  0  0  0  0  0  0  0  0  0  0  0
    5.7207   -7.9939    0.0000 O   0  0  0  0  0  0  0  0  0  0  0  0
    4.5307   -8.9070    0.0000 C   0  0  0  0  0  0  0  0  0  0  0  0
    3.1449   -8.3330    0.0000 C   0  0  0  0  0  0  0  0  0  0  0  0
    1.9548   -9.2461    0.0000 C   0  0  0  0  0  0  0  0  0  0  0  0
    0.5243   -9.6972    0.0000 C   0  0  0  0  0  0  0  0  0  0  0  0
    1.2622   -7.9156    0.0000 O   0  0  0  0  0  0  0  0  0  0  0  0
    2.1506  -10.7333    0.0000 C   0  0  0  0  0  0  0  0  0  0  0  0
    0.9606  -11.6464    0.0000 O   0  0  0  0  0  0  0  0  0  0  0  0
    1.1564  -13.1336    0.0000 C   0  0  0  0  0  0  0  0  0  0  0  0
    2.5422  -13.7076    0.0000 O   0  0  0  0  0  0  0  0  0  0  0  0
   -0.0336  -14.0468    0.0000 C   0  0  0  0  0  0  0  0  0  0  0  0
    0.1621  -15.5339    0.0000 C   0  0  0  0  0  0  0  0  0  0  0  0
   -1.0279  -16.4471    0.0000 C   0  0  0  0  0  0  0  0  0  0  0  0
    1.5480  -16.1079    0.0000 C   0  0  0  0  0  0  0  0  0  0  0  0
    3.5364  -11.3073    0.0000 C   0  0  0  0  0  0  0  0  0  0  0  0
    3.7322  -12.7945    0.0000 C   0  0  0  0  0  0  0  0  0  0  0  0
    4.7265  -10.3942    0.0000 O   0  0  0  0  0  0  0  0  0  0  0  0
    6.7150   -5.5936    0.0000 C   0  0  0  0  0  0  0  0  0  0  0  0
    8.1008   -6.1676    0.0000 N   0  0  0  0  0  0  0  0  0  0  0  0
    8.2966   -7.6548    0.0000 C   0  0  0  0  0  0  0  0  0  0  0  0
    9.2908   -5.2544    0.0000 C   0  0  0  0  0  0  0  0  0  0  0  0
    6.5192   -4.1064    0.0000 C   0  0  0  0  0  0  0  0  0  0  0  0
    7.7092   -3.1933    0.0000 O   0  0  0  0  0  0  0  0  0  0  0  0
    2.7184   -2.7184    0.0000 C   0  0  0  0  0  0  0  0  0  0  0  0
    3.7790   -3.7790    0.0000 C   0  0  0  0  0  0  0  0  0  0  0  0
    3.3908   -5.2279    0.0000 C   0  0  0  0  0  0  0  0  0  0  0  0
    4.1633   -6.5137    0.0000 N   0  0  0  0  0  0  0  0  0  0  0  0
    1.4712   -3.5517    0.0000 C   0  0  0  0  0  0  0  0  0  0  0  0
   -0.0000   -3.8444    0.0000 C   0  0  0  0  0  0  0  0  0  0  0  0
   -0.0000   -5.3444    0.0000 C   0  0  0  0  0  0  0  0  0  0  0  0
   -1.4712   -3.5517    0.0000 C   0  0  0  0  0  0  0  0  0  0  0  0
   -2.0452   -4.9376    0.0000 O   0  0  0  0  0  0  0  0  0  0  0  0
   -2.7184   -2.7184    0.0000 C   0  0  0  0  0  0  0  0  0  0  0  0
   -3.5517   -1.4712    0.0000 C   0  0  0  0  0  0  0  0  0  0  0  0
   -3.8444    0.0000    0.0000 C   0  0  0  0  0  0  0  0  0  0  0  0
   -3.5517    1.4712    0.0000 C   0  0  0  0  0  0  0  0  0  0  0  0
   -2.7184    2.7184    0.0000 C   0  0  0  0  0  0  0  0  0  0  0  0
   -1.4712    3.5517    0.0000 C   0  0  0  0  0  0  0  0  0  0  0  0
   -2.0452    4.9376    0.0000 C   0  0  0  0  0  0  0  0  0  0  0  0
    0.0000    3.8444    0.0000 O   0  0  0  0  0  0  0  0  0  0  0  0
    1.4712    3.5517    0.0000 C   0  0  0  0  0  0  0  0  0  0  0  0
    2.0452    4.9376    0.0000 O   0  0  0  0  0  0  0  0  0  0  0  0
    2.7184    2.7184    0.0000 C   0  0  0  0  0  0  0  0  0  0  0  0
    3.5517    1.4712    0.0000 C   0  0  0  0  0  0  0  0  0  0  0  0
    4.9376    2.0452    0.0000 O   0  0  0  0  0  0  0  0  0  0  0  0
    6.1276    1.1321    0.0000 C   0  0  0  0  0  0  0  0  0  0  0  0
    7.5134    1.7061    0.0000 C   0  0  0  0  0  0  0  0  0  0  0  0
    6.2975   -0.3583    0.0000 O   0  0  0  0  0  0  0  0  0  0  0  0
  1  2  1  0
  3  2  1  6
  3  4  1  0
  4  5  1  1
  5  6  1  0
  6  7  1  0
  7  8  1  0
  8  9  1  0
  8 10  1  0
 10 11  1  0
 11 12  1  0
 12 13  1  0
 13 14  1  0
 14 15  1  0
 14 16  1  0
 14 17  1  0
 17 18  1  0
 18 19  1  0
 19 20  2  0
 19 21  1  0
 21 22  1  0
 22 23  1  0
 22 24  1  0
 17 25  1  0
 25 26  1  0
 25 27  1  0
 10 28  1  0
 28 29  1  0
 29 30  1  0
 29 31  1  0
 28 32  1  0
 32 33  1  0
  4 34  1  0
 34 35  1  1
 35 36  1  0
 36 37  1  0
 34 38  1  0
 38 39  1  0
 39 40  1  1
 39 41  1  0
 41 42  1  1
 41 43  1  0
 43 44  2  0
 44 45  1  0
 45 46  2  0
 46 47  1  0
 47 48  1  0
 48 49  1  1
 48 50  1  0
 50 51  1  0
 51 52  2  0
 51 53  1  0
 53 54  1  0
 54 55  1  1
 55 56  1  0
 56 57  1  0
 56 58  2  0
 54  3  1  0
 32  6  1  0
 27 12  1  0
M  END
>  <ChEMBL_IDs>  (511) 
CHEMBL92513

>  <target_organism>  (511) 
None

>  <target_molecule_pref_name>  (511) 
nan

>  <# Known Targets>  (511) 
nan

>  <Known Targets>  (511) 
nan

>  <smiles>  (511) 
CO[C@@H]1[C@@H](OC2OC(C)C(OC3CC(C)(O)C(OC(=O)CC(C)C)C(C)O3)C(N(C)C)C2O)[C@@H](CCN)C[C@@H](C)[C@@H](O)/C=C/C=C/C[C@@H](C)OC(=O)C[C@H]1OC(C)=O

$$$$

     RDKit          2D

 56 58  0  0  0  0  0  0  0  0999 V2000
    7.1205    1.2990    0.0000 C   0  0  0  0  0  0  0  0  0  0  0  0
    5.6205    1.2990    0.0000 C   0  0  0  0  0  0  0  0  0  0  0  0
    4.8705    0.0000    0.0000 C   0  0  0  0  0  0  0  0  0  0  0  0
    5.6205   -1.2990    0.0000 C   0  0  0  0  0  0  0  0  0  0  0  0
    3.3705    0.0000    0.0000 C   0  0  0  0  0  0  0  0  0  0  0  0
    3.0367   -1.4624    0.0000 O   0  0  0  0  0  0  0  0  0  0  0  0
    2.1015   -2.6351    0.0000 C   0  0  0  0  0  0  0  0  0  0  0  0
    3.0367   -3.8079    0.0000 O   0  0  0  0  0  0  0  0  0  0  0  0
    0.7500   -3.2860    0.0000 C   0  0  0  0  0  0  0  0  0  0  0  0
    1.3600   -4.4903    0.0000 C   0  0  0  0  0  0  0  0  0  0  0  0
   -0.7500   -3.2860    0.0000 C   0  0  0  0  0  0  0  0  0  0  0  0
   -1.0838   -4.7484    0.0000 O   0  0  0  0  0  0  0  0  0  0  0  0
    0.0158   -5.7686    0.0000 C   0  0  0  0  0  0  0  0  0  0  0  0
   -0.3180   -7.2310    0.0000 C   0  0  0  0  0  0  0  0  0  0  0  0
    0.7816   -8.2513    0.0000 C   0  0  0  0  0  0  0  0  0  0  0  0
    1.4659   -9.5861    0.0000 C   0  0  0  0  0  0  0  0  0  0  0  0
   -0.4141   -9.1570    0.0000 O   0  0  0  0  0  0  0  0  0  0  0  0
   -0.2276  -10.6453    0.0000 C   0  0  0  0  0  0  0  0  0  0  0  0
    2.2150   -7.8091    0.0000 C   0  0  0  0  0  0  0  0  0  0  0  0
    3.3145   -8.8294    0.0000 O   0  0  0  0  0  0  0  0  0  0  0  0
    4.7479   -8.3873    0.0000 C   0  0  0  0  0  0  0  0  0  0  0  0
    5.8475   -9.4075    0.0000 C   0  0  0  0  0  0  0  0  0  0  0  0
    5.0817   -6.9249    0.0000 O   0  0  0  0  0  0  0  0  0  0  0  0
    2.5487   -6.3467    0.0000 C   0  0  0  0  0  0  0  0  0  0  0  0
    3.9821   -5.9046    0.0000 C   0  0  0  0  0  0  0  0  0  0  0  0
    1.4492   -5.3265    0.0000 O   0  0  0  0  0  0  0  0  0  0  0  0
   -2.1015   -2.6351    0.0000 C   0  0  0  0  0  0  0  0  0  0  0  0
   -3.0367   -3.8079    0.0000 C   0  0  0  0  0  0  0  0  0  0  0  0
   -3.0367   -1.4624    0.0000 C   0  0  0  0  0  0  0  0  0  0  0  0
   -4.3881   -2.1132    0.0000 O   0  0  0  0  0  0  0  0  0  0  0  0
   -5.6275   -1.2682    0.0000 C   0  0  0  0  0  0  0  0  0  0  0  0
   -5.5154    0.2276    0.0000 O   0  0  0  0  0  0  0  0  0  0  0  0
   -6.7548    1.0725    0.0000 C   0  0  0  0  0  0  0  0  0  0  0  0
   -6.6427    2.5684    0.0000 C   0  0  0  0  0  0  0  0  0  0  0  0
   -8.1062    0.4217    0.0000 C   0  0  0  0  0  0  0  0  0  0  0  0
   -8.2183   -1.0741    0.0000 C   0  0  0  0  0  0  0  0  0  0  0  0
   -9.5698   -1.7249    0.0000 O   0  0  0  0  0  0  0  0  0  0  0  0
  -10.8091   -0.8799    0.0000 C   0  0  0  0  0  0  0  0  0  0  0  0
   -6.9790   -1.9191    0.0000 C   0  0  0  0  0  0  0  0  0  0  0  0
   -7.0910   -3.4149    0.0000 O   0  0  0  0  0  0  0  0  0  0  0  0
   -3.3705    0.0000    0.0000 C   0  0  0  0  0  0  0  0  0  0  0  0
   -4.6804    0.3267    0.0000 C   0  0  0  0  0  0  0  0  0  0  0  0
   -3.0367    1.4624    0.0000 C   0  0  0  0  0  0  0  0  0  0  0  0
   -2.1015    2.6351    0.0000 C   0  0  0  0  0  0  0  0  0  0  0  0
   -3.0367    3.8079    0.0000 C   0  0  0  0  0  0  0  0  0  0  0  0
   -0.7500    3.2860    0.0000 C   0  0  0  0  0  0  0  0  0  0  0  0
   -1.0838    4.7484    0.0000 O   0  0  0  0  0  0  0  0  0  0  0  0
    0.7500    3.2860    0.0000 C   0  0  0  0  0  0  0  0  0  0  0  0
    1.0838    4.7484    0.0000 C   0  0  0  0  0  0  0  0  0  0  0  0
    2.1015    2.6351    0.0000 C   0  0  0  0  0  0  0  0  0  0  0  0
    3.0367    3.8079    0.0000 O   0  0  0  0  0  0  0  0  0  0  0  0
    4.5199    3.5843    0.0000 C   0  0  0  0  0  0  0  0  0  0  0  0
    5.4552    4.7571    0.0000 C   0  0  0  0  0  0  0  0  0  0  0  0
    5.2341    2.2652    0.0000 O   0  0  0  0  0  0  0  0  0  0  0  0
    3.0367    1.4624    0.0000 C   0  0  0  0  0  0  0  0  0  0  0  0
    4.4574    1.9436    0.0000 C   0  0  0  0  0  0  0  0  0  0  0  0
  1  2  1  0
  2  3  1  0
  3  4  1  0
  3  5  1  0
  5  6  1  0
  6  7  1  0
  7  8  2  0
  7  9  1  0
  9 10  1  0
  9 11  1  0
 11 12  1  0
 12 13  1  0
 13 14  1  0
 14 15  1  0
 15 16  1  0
 15 17  1  0
 17 18  1  0
 15 19  1  0
 19 20  1  0
 20 21  1  0
 21 22  1  0
 21 23  2  0
 19 24  1  0
 24 25  1  0
 24 26  1  0
 11 27  1  0
 27 28  1  0
 27 29  1  0
 29 30  1  0
 30 31  1  0
 31 32  1  0
 32 33  1  0
 33 34  1  0
 33 35  1  0
 35 36  1  0
 36 37  1  0
 37 38  1  0
 36 39  1  0
 39 40  1  0
 29 41  1  0
 41 42  1  0
 41 43  1  0
 43 44  1  0
 44 45  1  0
 44 46  1  0
 46 47  2  0
 46 48  1  0
 48 49  1  0
 48 50  1  0
 50 51  1  0
 51 52  1  0
 52 53  1  0
 52 54  2  0
 50 55  1  0
 55 56  1  0
 55  5  1  0
 26 13  1  0
 39 31  1  0
M  END
>  <ChEMBL_IDs>  (512) 
nan

>  <target_organism>  (512) 
nan

>  <target_molecule_pref_name>  (512) 
nan

>  <# Known Targets>  (512) 
nan

>  <Known Targets>  (512) 
nan

>  <smiles>  (512) 
CCC(C)C1OC(=O)C(C)C(OC2CC(C)(OC)C(OC(C)=O)C(C)O2)C(C)C(OC2OC(C)CC(OC)C2O)C(C)CC(C)C(=O)C(C)C(OC(C)=O)C1C

$$$$

     RDKit          2D

 57 59  0  0  0  0  0  0  0  0999 V2000
    7.1205    1.2990    0.0000 C   0  0  0  0  0  0  0  0  0  0  0  0
    5.6205    1.2990    0.0000 C   0  0  0  0  0  0  0  0  0  0  0  0
    4.8705    0.0000    0.0000 C   0  0  0  0  0  0  0  0  0  0  0  0
    5.6205   -1.2990    0.0000 C   0  0  0  0  0  0  0  0  0  0  0  0
    3.3705    0.0000    0.0000 C   0  0  0  0  0  0  0  0  0  0  0  0
    3.0367   -1.4624    0.0000 O   0  0  0  0  0  0  0  0  0  0  0  0
    2.1015   -2.6351    0.0000 C   0  0  0  0  0  0  0  0  0  0  0  0
    3.0367   -3.8079    0.0000 O   0  0  0  0  0  0  0  0  0  0  0  0
    0.7500   -3.2860    0.0000 C   0  0  0  0  0  0  0  0  0  0  0  0
    1.3600   -4.4903    0.0000 C   0  0  0  0  0  0  0  0  0  0  0  0
   -0.7500   -3.2860    0.0000 C   0  0  0  0  0  0  0  0  0  0  0  0
   -1.0838   -4.7484    0.0000 O   0  0  0  0  0  0  0  0  0  0  0  0
    0.0158   -5.7686    0.0000 C   0  0  0  0  0  0  0  0  0  0  0  0
   -0.3180   -7.2310    0.0000 C   0  0  0  0  0  0  0  0  0  0  0  0
    0.7816   -8.2513    0.0000 C   0  0  0  0  0  0  0  0  0  0  0  0
    1.4659   -9.5861    0.0000 C   0  0  0  0  0  0  0  0  0  0  0  0
   -0.4141   -9.1570    0.0000 O   0  0  0  0  0  0  0  0  0  0  0  0
   -0.2276  -10.6453    0.0000 C   0  0  0  0  0  0  0  0  0  0  0  0
    2.2150   -7.8091    0.0000 C   0  0  0  0  0  0  0  0  0  0  0  0
    3.3145   -8.8294    0.0000 O   0  0  0  0  0  0  0  0  0  0  0  0
    4.7479   -8.3873    0.0000 C   0  0  0  0  0  0  0  0  0  0  0  0
    5.8475   -9.4075    0.0000 C   0  0  0  0  0  0  0  0  0  0  0  0
    5.0817   -6.9249    0.0000 O   0  0  0  0  0  0  0  0  0  0  0  0
    2.5487   -6.3467    0.0000 C   0  0  0  0  0  0  0  0  0  0  0  0
    3.9821   -5.9046    0.0000 C   0  0  0  0  0  0  0  0  0  0  0  0
    1.4492   -5.3265    0.0000 O   0  0  0  0  0  0  0  0  0  0  0  0
   -2.1015   -2.6351    0.0000 C   0  0  0  0  0  0  0  0  0  0  0  0
   -3.0367   -3.8079    0.0000 C   0  0  0  0  0  0  0  0  0  0  0  0
   -3.0367   -1.4624    0.0000 C   0  0  0  0  0  0  0  0  0  0  0  0
   -4.3881   -2.1132    0.0000 O   0  0  0  0  0  0  0  0  0  0  0  0
   -5.6275   -1.2682    0.0000 C   0  0  0  0  0  0  0  0  0  0  0  0
   -5.5154    0.2276    0.0000 O   0  0  0  0  0  0  0  0  0  0  0  0
   -6.7548    1.0725    0.0000 C   0  0  0  0  0  0  0  0  0  0  0  0
   -6.6427    2.5684    0.0000 C   0  0  0  0  0  0  0  0  0  0  0  0
   -8.1062    0.4217    0.0000 C   0  0  0  0  0  0  0  0  0  0  0  0
   -8.2183   -1.0741    0.0000 C   0  0  0  0  0  0  0  0  0  0  0  0
   -9.5698   -1.7249    0.0000 O   0  0  0  0  0  0  0  0  0  0  0  0
  -10.8091   -0.8799    0.0000 C   0  0  0  0  0  0  0  0  0  0  0  0
   -6.9790   -1.9191    0.0000 C   0  0  0  0  0  0  0  0  0  0  0  0
   -7.0910   -3.4149    0.0000 O   0  0  0  0  0  0  0  0  0  0  0  0
   -3.3705    0.0000    0.0000 C   0  0  0  0  0  0  0  0  0  0  0  0
   -4.6804    0.3267    0.0000 C   0  0  0  0  0  0  0  0  0  0  0  0
   -3.0367    1.4624    0.0000 C   0  0  0  0  0  0  0  0  0  0  0  0
   -2.1015    2.6351    0.0000 C   0  0  0  0  0  0  0  0  0  0  0  0
   -3.5348    3.0773    0.0000 C   0  0  0  0  0  0  0  0  0  0  0  0
   -2.2135    4.1309    0.0000 O   0  0  0  0  0  0  0  0  0  0  0  0
   -0.7500    3.2860    0.0000 C   0  0  0  0  0  0  0  0  0  0  0  0
   -1.0838    4.7484    0.0000 O   0  0  0  0  0  0  0  0  0  0  0  0
    0.7500    3.2860    0.0000 C   0  0  0  0  0  0  0  0  0  0  0  0
    1.0838    4.7484    0.0000 C   0  0  0  0  0  0  0  0  0  0  0  0
    2.1015    2.6351    0.0000 C   0  0  0  0  0  0  0  0  0  0  0  0
    3.0367    3.8079    0.0000 O   0  0  0  0  0  0  0  0  0  0  0  0
    4.5199    3.5843    0.0000 C   0  0  0  0  0  0  0  0  0  0  0  0
    5.4552    4.7571    0.0000 C   0  0  0  0  0  0  0  0  0  0  0  0
    5.2341    2.2652    0.0000 O   0  0  0  0  0  0  0  0  0  0  0  0
    3.0367    1.4624    0.0000 C   0  0  0  0  0  0  0  0  0  0  0  0
    4.4574    1.9436    0.0000 C   0  0  0  0  0  0  0  0  0  0  0  0
  1  2  1  0
  2  3  1  0
  3  4  1  0
  3  5  1  0
  5  6  1  0
  6  7  1  0
  7  8  2  0
  7  9  1  0
  9 10  1  0
  9 11  1  0
 11 12  1  0
 12 13  1  0
 13 14  1  0
 14 15  1  0
 15 16  1  0
 15 17  1  0
 17 18  1  0
 15 19  1  0
 19 20  1  0
 20 21  1  0
 21 22  1  0
 21 23  2  0
 19 24  1  0
 24 25  1  0
 24 26  1  0
 11 27  1  0
 27 28  1  0
 27 29  1  0
 29 30  1  0
 30 31  1  0
 31 32  1  0
 32 33  1  0
 33 34  1  0
 33 35  1  0
 35 36  1  0
 36 37  1  0
 37 38  1  0
 36 39  1  0
 39 40  1  0
 29 41  1  0
 41 42  1  0
 41 43  1  0
 43 44  1  0
 44 45  1  0
 44 46  1  0
 44 47  1  0
 47 48  2  0
 47 49  1  0
 49 50  1  0
 49 51  1  0
 51 52  1  0
 52 53  1  0
 53 54  1  0
 53 55  2  0
 51 56  1  0
 56 57  1  0
 56  5  1  0
 26 13  1  0
 39 31  1  0
M  END
>  <ChEMBL_IDs>  (513) 
nan

>  <target_organism>  (513) 
nan

>  <target_molecule_pref_name>  (513) 
nan

>  <# Known Targets>  (513) 
nan

>  <Known Targets>  (513) 
nan

>  <smiles>  (513) 
CCC(C)C1OC(=O)C(C)C(OC2CC(C)(OC)C(OC(C)=O)C(C)O2)C(C)C(OC2OC(C)CC(OC)C2O)C(C)CC(C)(O)C(=O)C(C)C(OC(C)=O)C1C

$$$$

     RDKit          2D

 57 59  0  0  0  0  0  0  0  0999 V2000
    8.5546   -5.5615    0.0000 C   0  0  0  0  0  0  0  0  0  0  0  0
    7.3152   -6.4065    0.0000 O   0  0  0  0  0  0  0  0  0  0  0  0
    5.9638   -5.7557    0.0000 C   0  0  0  0  0  0  0  0  0  0  0  0
    4.7244   -6.6006    0.0000 C   0  0  0  0  0  0  0  0  0  0  0  0
    3.3730   -5.9498    0.0000 C   0  0  0  0  0  0  0  0  0  0  0  0
    2.1336   -6.7948    0.0000 C   0  0  0  0  0  0  0  0  0  0  0  0
    3.2609   -4.4540    0.0000 O   0  0  0  0  0  0  0  0  0  0  0  0
    4.5002   -3.6090    0.0000 C   0  0  0  0  0  0  0  0  0  0  0  0
    4.3881   -2.1132    0.0000 O   0  0  0  0  0  0  0  0  0  0  0  0
    3.0367   -1.4624    0.0000 C   0  0  0  0  0  0  0  0  0  0  0  0
    3.3705    0.0000    0.0000 C   0  0  0  0  0  0  0  0  0  0  0  0
    4.8705    0.0000    0.0000 C   0  0  0  0  0  0  0  0  0  0  0  0
    3.0367    1.4624    0.0000 C   0  0  0  0  0  0  0  0  0  0  0  0
    2.1015    2.6351    0.0000 C   0  0  0  0  0  0  0  0  0  0  0  0
    3.0367    3.8079    0.0000 C   0  0  0  0  0  0  0  0  0  0  0  0
    0.7500    3.2860    0.0000 C   0  0  0  0  0  0  0  0  0  0  0  0
    1.0838    4.7484    0.0000 O   0  0  0  0  0  0  0  0  0  0  0  0
   -0.7500    3.2860    0.0000 C   0  0  0  0  0  0  0  0  0  0  0  0
   -0.9030    4.7781    0.0000 C   0  0  0  0  0  0  0  0  0  0  0  0
   -2.1015    2.6351    0.0000 C   0  0  0  0  0  0  0  0  0  0  0  0
   -3.0367    3.8079    0.0000 O   0  0  0  0  0  0  0  0  0  0  0  0
   -2.4887    5.2042    0.0000 C   0  0  0  0  0  0  0  0  0  0  0  0
   -1.0437    5.6069    0.0000 C   0  0  0  0  0  0  0  0  0  0  0  0
   -3.4239    6.3769    0.0000 O   0  0  0  0  0  0  0  0  0  0  0  0
   -3.0367    1.4624    0.0000 C   0  0  0  0  0  0  0  0  0  0  0  0
   -4.2987    2.2731    0.0000 C   0  0  0  0  0  0  0  0  0  0  0  0
   -3.3705    0.0000    0.0000 C   0  0  0  0  0  0  0  0  0  0  0  0
   -4.8705    0.0000    0.0000 C   0  0  0  0  0  0  0  0  0  0  0  0
   -5.6205   -1.2990    0.0000 C   0  0  0  0  0  0  0  0  0  0  0  0
   -5.6205    1.2990    0.0000 C   0  0  0  0  0  0  0  0  0  0  0  0
   -7.1205    1.2990    0.0000 C   0  0  0  0  0  0  0  0  0  0  0  0
   -5.0344    2.6798    0.0000 O   0  0  0  0  0  0  0  0  0  0  0  0
   -3.0367   -1.4624    0.0000 O   0  0  0  0  0  0  0  0  0  0  0  0
   -2.1015   -2.6351    0.0000 C   0  0  0  0  0  0  0  0  0  0  0  0
   -3.0367   -3.8079    0.0000 O   0  0  0  0  0  0  0  0  0  0  0  0
   -0.7500   -3.2860    0.0000 C   0  0  0  0  0  0  0  0  0  0  0  0
   -1.0838   -4.7484    0.0000 C   0  0  0  0  0  0  0  0  0  0  0  0
    0.7500   -3.2860    0.0000 C   0  0  0  0  0  0  0  0  0  0  0  0
    1.0838   -4.7484    0.0000 O   0  0  0  0  0  0  0  0  0  0  0  0
    2.5171   -5.1905    0.0000 C   0  0  0  0  0  0  0  0  0  0  0  0
    2.8509   -6.6529    0.0000 C   0  0  0  0  0  0  0  0  0  0  0  0
    4.2843   -7.0950    0.0000 C   0  0  0  0  0  0  0  0  0  0  0  0
    5.4800   -8.0007    0.0000 C   0  0  0  0  0  0  0  0  0  0  0  0
    3.6000   -8.4298    0.0000 O   0  0  0  0  0  0  0  0  0  0  0  0
    4.4138   -9.6899    0.0000 C   0  0  0  0  0  0  0  0  0  0  0  0
    5.3839   -6.0748    0.0000 C   0  0  0  0  0  0  0  0  0  0  0  0
    6.8172   -6.5169    0.0000 O   0  0  0  0  0  0  0  0  0  0  0  0
    7.1510   -7.9793    0.0000 C   0  0  0  0  0  0  0  0  0  0  0  0
    8.5844   -8.4214    0.0000 C   0  0  0  0  0  0  0  0  0  0  0  0
    6.0514   -8.9995    0.0000 O   0  0  0  0  0  0  0  0  0  0  0  0
    5.0501   -4.6124    0.0000 C   0  0  0  0  0  0  0  0  0  0  0  0
    6.1497   -3.5921    0.0000 C   0  0  0  0  0  0  0  0  0  0  0  0
    3.6167   -4.1702    0.0000 O   0  0  0  0  0  0  0  0  0  0  0  0
    2.1015   -2.6351    0.0000 C   0  0  0  0  0  0  0  0  0  0  0  0
    3.0367   -3.8079    0.0000 C   0  0  0  0  0  0  0  0  0  0  0  0
    5.8517   -4.2598    0.0000 C   0  0  0  0  0  0  0  0  0  0  0  0
    7.0910   -3.4149    0.0000 O   0  0  0  0  0  0  0  0  0  0  0  0
  1  2  1  0
  2  3  1  0
  3  4  1  0
  4  5  1  0
  5  6  1  0
  5  7  1  0
  7  8  1  0
  8  9  1  0
  9 10  1  0
 10 11  1  0
 11 12  1  0
 11 13  1  0
 13 14  1  0
 14 15  1  0
 14 16  1  0
 16 17  2  0
 16 18  1  0
 18 19  1  0
 18 20  1  0
 20 21  1  0
 21 22  1  0
 22 23  1  0
 22 24  2  0
 20 25  1  0
 25 26  1  0
 25 27  1  0
 27 28  1  0
 28 29  1  0
 28 30  1  0
 30 31  1  0
 30 32  1  0
 27 33  1  0
 33 34  1  0
 34 35  2  0
 34 36  1  0
 36 37  1  0
 36 38  1  0
 38 39  1  0
 39 40  1  0
 40 41  1  0
 41 42  1  0
 42 43  1  0
 42 44  1  0
 44 45  1  0
 42 46  1  0
 46 47  1  0
 47 48  1  0
 48 49  1  0
 48 50  2  0
 46 51  1  0
 51 52  1  0
 51 53  1  0
 38 54  1  0
 54 55  1  0
  8 56  1  0
 56 57  1  0
 56  3  1  0
 54 10  1  0
 53 40  1  0
M  END
>  <ChEMBL_IDs>  (514) 
nan

>  <target_organism>  (514) 
nan

>  <target_molecule_pref_name>  (514) 
nan

>  <# Known Targets>  (514) 
nan

>  <Known Targets>  (514) 
nan

>  <smiles>  (514) 
COC1CC(C)OC(OC2C(C)CC(C)C(=O)C(C)C(OC(C)=O)C(C)C(C(C)C(C)O)OC(=O)C(C)C(OC3CC(C)(OC)C(OC(C)=O)C(C)O3)C2C)C1O

$$$$

     RDKit          2D

 58 60  0  0  0  0  0  0  0  0999 V2000
    1.4387   -2.3789    0.0000 C   0  0  0  0  0  0  0  0  0  0  0  0
    1.9094   -3.8032    0.0000 O   0  0  0  0  0  0  0  0  0  0  0  0
    3.2609   -4.4540    0.0000 C   0  0  0  0  0  0  0  0  0  0  0  0
    4.5002   -3.6090    0.0000 C   0  0  0  0  0  0  0  0  0  0  0  0
    4.3881   -2.1132    0.0000 O   0  0  0  0  0  0  0  0  0  0  0  0
    3.0367   -1.4624    0.0000 C   0  0  0  0  0  0  0  0  0  0  0  0
    3.3705    0.0000    0.0000 C   0  0  0  0  0  0  0  0  0  0  0  0
    4.8705    0.0000    0.0000 C   0  0  0  0  0  0  0  0  0  0  0  0
    3.0367    1.4624    0.0000 C   0  0  0  0  0  0  0  0  0  0  0  0
    2.1015    2.6351    0.0000 C   0  0  0  0  0  0  0  0  0  0  0  0
    2.2135    4.1309    0.0000 C   0  0  0  0  0  0  0  0  0  0  0  0
    3.5348    3.0773    0.0000 O   0  0  0  0  0  0  0  0  0  0  0  0
    3.8686    4.5397    0.0000 C   0  0  0  0  0  0  0  0  0  0  0  0
    0.7500    3.2860    0.0000 C   0  0  0  0  0  0  0  0  0  0  0  0
    1.0838    4.7484    0.0000 O   0  0  0  0  0  0  0  0  0  0  0  0
   -0.7500    3.2860    0.0000 C   0  0  0  0  0  0  0  0  0  0  0  0
   -0.9030    4.7781    0.0000 C   0  0  0  0  0  0  0  0  0  0  0  0
   -2.1015    2.6351    0.0000 C   0  0  0  0  0  0  0  0  0  0  0  0
   -3.0367    3.8079    0.0000 O   0  0  0  0  0  0  0  0  0  0  0  0
   -2.4887    5.2042    0.0000 C   0  0  0  0  0  0  0  0  0  0  0  0
   -3.4239    6.3769    0.0000 C   0  0  0  0  0  0  0  0  0  0  0  0
   -1.0437    5.6069    0.0000 O   0  0  0  0  0  0  0  0  0  0  0  0
   -3.0367    1.4624    0.0000 C   0  0  0  0  0  0  0  0  0  0  0  0
   -4.2987    2.2731    0.0000 C   0  0  0  0  0  0  0  0  0  0  0  0
   -3.3705    0.0000    0.0000 C   0  0  0  0  0  0  0  0  0  0  0  0
   -4.8705    0.0000    0.0000 C   0  0  0  0  0  0  0  0  0  0  0  0
   -5.6205   -1.2990    0.0000 C   0  0  0  0  0  0  0  0  0  0  0  0
   -5.6205    1.2990    0.0000 C   0  0  0  0  0  0  0  0  0  0  0  0
   -7.1205    1.2990    0.0000 C   0  0  0  0  0  0  0  0  0  0  0  0
   -5.0344    2.6798    0.0000 O   0  0  0  0  0  0  0  0  0  0  0  0
   -3.0367   -1.4624    0.0000 O   0  0  0  0  0  0  0  0  0  0  0  0
   -2.1015   -2.6351    0.0000 C   0  0  0  0  0  0  0  0  0  0  0  0
   -3.0367   -3.8079    0.0000 O   0  0  0  0  0  0  0  0  0  0  0  0
   -0.7500   -3.2860    0.0000 C   0  0  0  0  0  0  0  0  0  0  0  0
   -1.0838   -4.7484    0.0000 C   0  0  0  0  0  0  0  0  0  0  0  0
    0.7500   -3.2860    0.0000 C   0  0  0  0  0  0  0  0  0  0  0  0
    1.0838   -4.7484    0.0000 O   0  0  0  0  0  0  0  0  0  0  0  0
    2.5171   -5.1905    0.0000 C   0  0  0  0  0  0  0  0  0  0  0  0
    2.8509   -6.6529    0.0000 O   0  0  0  0  0  0  0  0  0  0  0  0
    4.2843   -7.0950    0.0000 C   0  0  0  0  0  0  0  0  0  0  0  0
    4.2543   -8.5947    0.0000 C   0  0  0  0  0  0  0  0  0  0  0  0
    5.3839   -6.0748    0.0000 C   0  0  0  0  0  0  0  0  0  0  0  0
    5.0501   -4.6124    0.0000 C   0  0  0  0  0  0  0  0  0  0  0  0
    6.3639   -3.8885    0.0000 O   0  0  0  0  0  0  0  0  0  0  0  0
    3.6167   -4.1702    0.0000 C   0  0  0  0  0  0  0  0  0  0  0  0
    3.2829   -2.7078    0.0000 O   0  0  0  0  0  0  0  0  0  0  0  0
    2.1015   -2.6351    0.0000 C   0  0  0  0  0  0  0  0  0  0  0  0
    3.0367   -3.8079    0.0000 C   0  0  0  0  0  0  0  0  0  0  0  0
    5.8517   -4.2598    0.0000 O   0  0  0  0  0  0  0  0  0  0  0  0
    5.9638   -5.7557    0.0000 C   0  0  0  0  0  0  0  0  0  0  0  0
    7.3152   -6.4065    0.0000 C   0  0  0  0  0  0  0  0  0  0  0  0
    4.7244   -6.6006    0.0000 C   0  0  0  0  0  0  0  0  0  0  0  0
    4.8365   -8.0964    0.0000 O   0  0  0  0  0  0  0  0  0  0  0  0
    3.5972   -8.9414    0.0000 C   0  0  0  0  0  0  0  0  0  0  0  0
    3.7093  -10.4372    0.0000 C   0  0  0  0  0  0  0  0  0  0  0  0
    2.2457   -8.2906    0.0000 O   0  0  0  0  0  0  0  0  0  0  0  0
    3.3730   -5.9498    0.0000 C   0  0  0  0  0  0  0  0  0  0  0  0
    2.3749   -7.0696    0.0000 C   0  0  0  0  0  0  0  0  0  0  0  0
  1  2  1  0
  2  3  1  0
  3  4  1  0
  4  5  1  0
  5  6  1  0
  6  7  1  0
  7  8  1  0
  7  9  1  0
  9 10  1  0
 10 11  1  0
 10 12  1  0
 12 13  1  0
 10 14  1  0
 14 15  2  0
 14 16  1  0
 16 17  1  0
 16 18  1  0
 18 19  1  0
 19 20  1  0
 20 21  1  0
 20 22  2  0
 18 23  1  0
 23 24  1  0
 23 25  1  0
 25 26  1  0
 26 27  1  0
 26 28  1  0
 28 29  1  0
 28 30  1  0
 25 31  1  0
 31 32  1  0
 32 33  2  0
 32 34  1  0
 34 35  1  0
 34 36  1  0
 36 37  1  0
 37 38  1  0
 38 39  1  0
 39 40  1  0
 40 41  1  0
 40 42  1  0
 42 43  1  0
 43 44  1  0
 43 45  1  0
 45 46  1  0
 36 47  1  0
 47 48  1  0
  4 49  1  0
 49 50  1  0
 50 51  1  0
 50 52  1  0
 52 53  1  0
 53 54  1  0
 54 55  1  0
 54 56  2  0
 52 57  1  0
 57 58  1  0
 57  3  1  0
 47  6  1  0
 45 38  1  0
M  END
>  <ChEMBL_IDs>  (515) 
nan

>  <target_organism>  (515) 
nan

>  <target_molecule_pref_name>  (515) 
nan

>  <# Known Targets>  (515) 
nan

>  <Known Targets>  (515) 
nan

>  <smiles>  (515) 
COC1C(OC2C(C)CC(C)(OC)C(=O)C(C)C(OC(C)=O)C(C)C(C(C)C(C)O)OC(=O)C(C)C(OC3OC(C)CC(O)C3O)C2C)OC(C)C(OC(C)=O)C1C

$$$$

     RDKit          2D

 58 60  0  0  0  0  0  0  0  0999 V2000
    7.1205    1.2990    0.0000 C   0  0  0  0  0  0  0  0  0  0  0  0
    5.6205    1.2990    0.0000 O   0  0  0  0  0  0  0  0  0  0  0  0
    4.8705    0.0000    0.0000 C   0  0  0  0  0  0  0  0  0  0  0  0
    5.6205   -1.2990    0.0000 O   0  0  0  0  0  0  0  0  0  0  0  0
    3.3705    0.0000    0.0000 C   0  0  0  0  0  0  0  0  0  0  0  0
    3.0367   -1.4624    0.0000 C   0  0  0  0  0  0  0  0  0  0  0  0
    4.3881   -2.1132    0.0000 C   0  0  0  0  0  0  0  0  0  0  0  0
    2.1015   -2.6351    0.0000 C   0  0  0  0  0  0  0  0  0  0  0  0
    3.0367   -3.8079    0.0000 O   0  0  0  0  0  0  0  0  0  0  0  0
    0.7500   -3.2860    0.0000 C   0  0  0  0  0  0  0  0  0  0  0  0
    1.8496   -4.3062    0.0000 C   0  0  0  0  0  0  0  0  0  0  0  0
    0.2020   -4.6823    0.0000 O   0  0  0  0  0  0  0  0  0  0  0  0
   -0.7500   -3.2860    0.0000 C   0  0  0  0  0  0  0  0  0  0  0  0
   -2.1015   -2.6351    0.0000 C   0  0  0  0  0  0  0  0  0  0  0  0
   -2.6628   -3.8629    0.0000 C   0  0  0  0  0  0  0  0  0  0  0  0
   -3.0367   -1.4624    0.0000 C   0  0  0  0  0  0  0  0  0  0  0  0
   -4.3881   -2.1132    0.0000 O   0  0  0  0  0  0  0  0  0  0  0  0
   -4.5002   -3.6090    0.0000 C   0  0  0  0  0  0  0  0  0  0  0  0
   -3.2609   -4.4540    0.0000 O   0  0  0  0  0  0  0  0  0  0  0  0
   -3.3730   -5.9498    0.0000 C   0  0  0  0  0  0  0  0  0  0  0  0
   -2.1336   -6.7948    0.0000 C   0  0  0  0  0  0  0  0  0  0  0  0
   -4.7244   -6.6006    0.0000 C   0  0  0  0  0  0  0  0  0  0  0  0
   -5.9638   -5.7557    0.0000 C   0  0  0  0  0  0  0  0  0  0  0  0
   -7.3152   -6.4065    0.0000 O   0  0  0  0  0  0  0  0  0  0  0  0
   -7.4273   -7.9023    0.0000 C   0  0  0  0  0  0  0  0  0  0  0  0
   -5.8517   -4.2598    0.0000 C   0  0  0  0  0  0  0  0  0  0  0  0
   -7.0910   -3.4149    0.0000 O   0  0  0  0  0  0  0  0  0  0  0  0
   -3.3705    0.0000    0.0000 C   0  0  0  0  0  0  0  0  0  0  0  0
   -4.8705    0.0000    0.0000 C   0  0  0  0  0  0  0  0  0  0  0  0
   -3.0367    1.4624    0.0000 C   0  0  0  0  0  0  0  0  0  0  0  0
   -4.3881    2.1132    0.0000 O   0  0  0  0  0  0  0  0  0  0  0  0
   -4.5002    3.6090    0.0000 C   0  0  0  0  0  0  0  0  0  0  0  0
   -3.2609    4.4540    0.0000 C   0  0  0  0  0  0  0  0  0  0  0  0
   -3.3730    5.9498    0.0000 C   0  0  0  0  0  0  0  0  0  0  0  0
   -2.9667    7.3937    0.0000 C   0  0  0  0  0  0  0  0  0  0  0  0
   -1.8804    5.8005    0.0000 O   0  0  0  0  0  0  0  0  0  0  0  0
   -1.0048    7.0184    0.0000 C   0  0  0  0  0  0  0  0  0  0  0  0
   -4.7244    6.6006    0.0000 C   0  0  0  0  0  0  0  0  0  0  0  0
   -4.8365    8.0964    0.0000 O   0  0  0  0  0  0  0  0  0  0  0  0
   -5.9638    5.7557    0.0000 C   0  0  0  0  0  0  0  0  0  0  0  0
   -7.3152    6.4065    0.0000 C   0  0  0  0  0  0  0  0  0  0  0  0
   -5.8517    4.2598    0.0000 O   0  0  0  0  0  0  0  0  0  0  0  0
   -2.1015    2.6351    0.0000 C   0  0  0  0  0  0  0  0  0  0  0  0
   -2.7251    3.9993    0.0000 C   0  0  0  0  0  0  0  0  0  0  0  0
   -0.7500    3.2860    0.0000 C   0  0  0  0  0  0  0  0  0  0  0  0
   -1.0838    4.7484    0.0000 O   0  0  0  0  0  0  0  0  0  0  0  0
    0.7500    3.2860    0.0000 O   0  0  0  0  0  0  0  0  0  0  0  0
    2.1015    2.6351    0.0000 C   0  0  0  0  0  0  0  0  0  0  0  0
    3.0367    3.8079    0.0000 C   0  0  0  0  0  0  0  0  0  0  0  0
    4.5199    3.5843    0.0000 C   0  0  0  0  0  0  0  0  0  0  0  0
    2.4887    5.2042    0.0000 C   0  0  0  0  0  0  0  0  0  0  0  0
    1.0054    5.4278    0.0000 O   0  0  0  0  0  0  0  0  0  0  0  0
    3.4239    6.3769    0.0000 C   0  0  0  0  0  0  0  0  0  0  0  0
    2.8759    7.7733    0.0000 C   0  0  0  0  0  0  0  0  0  0  0  0
    3.8111    8.9460    0.0000 C   0  0  0  0  0  0  0  0  0  0  0  0
    1.3927    7.9968    0.0000 O   0  0  0  0  0  0  0  0  0  0  0  0
    3.0367    1.4624    0.0000 C   0  0  0  0  0  0  0  0  0  0  0  0
    4.3881    2.1132    0.0000 C   0  0  0  0  0  0  0  0  0  0  0  0
  1  2  1  0
  2  3  1  0
  3  4  2  0
  3  5  1  0
  5  6  1  0
  6  7  1  0
  6  8  1  0
  8  9  2  0
  8 10  1  0
 10 11  1  0
 10 12  1  0
 10 13  1  0
 13 14  1  0
 14 15  1  0
 14 16  1  0
 16 17  1  0
 17 18  1  0
 18 19  1  0
 19 20  1  0
 20 21  1  0
 20 22  1  0
 22 23  1  0
 23 24  1  0
 24 25  1  0
 23 26  1  0
 26 27  1  0
 16 28  1  0
 28 29  1  0
 28 30  1  0
 30 31  1  0
 31 32  1  0
 32 33  1  0
 33 34  1  0
 34 35  1  0
 34 36  1  0
 36 37  1  0
 34 38  1  0
 38 39  1  0
 38 40  1  0
 40 41  1  0
 40 42  1  0
 30 43  1  0
 43 44  1  0
 43 45  1  0
 45 46  2  0
 45 47  1  0
 47 48  1  0
 48 49  1  0
 49 50  1  0
 49 51  1  0
 51 52  1  0
 51 53  1  0
 53 54  1  0
 54 55  1  0
 54 56  2  0
 48 57  1  0
 57 58  1  0
 57  5  1  0
 26 18  1  0
 42 32  1  0
M  END
>  <ChEMBL_IDs>  (516) 
nan

>  <target_organism>  (516) 
nan

>  <target_molecule_pref_name>  (516) 
nan

>  <# Known Targets>  (516) 
nan

>  <Known Targets>  (516) 
nan

>  <smiles>  (516) 
COC(=O)C1C(C)C(=O)C(C)(O)CC(C)C(OC2OC(C)CC(OC)C2O)C(C)C(OC2CC(C)(OC)C(O)C(C)O2)C(C)C(=O)OC(C(C)C(O)CC(C)=O)C1C

$$$$

     RDKit          2D

 58 60  0  0  0  0  0  0  0  0999 V2000
    8.5546   -5.5615    0.0000 C   0  0  0  0  0  0  0  0  0  0  0  0
    7.3152   -6.4065    0.0000 O   0  0  0  0  0  0  0  0  0  0  0  0
    5.9638   -5.7557    0.0000 C   0  0  0  0  0  0  0  0  0  0  0  0
    4.7244   -6.6006    0.0000 C   0  0  0  0  0  0  0  0  0  0  0  0
    3.3730   -5.9498    0.0000 C   0  0  0  0  0  0  0  0  0  0  0  0
    2.1336   -6.7948    0.0000 C   0  0  0  0  0  0  0  0  0  0  0  0
    3.2609   -4.4540    0.0000 O   0  0  0  0  0  0  0  0  0  0  0  0
    4.5002   -3.6090    0.0000 C   0  0  0  0  0  0  0  0  0  0  0  0
    4.3881   -2.1132    0.0000 O   0  0  0  0  0  0  0  0  0  0  0  0
    3.0367   -1.4624    0.0000 C   0  0  0  0  0  0  0  0  0  0  0  0
    3.3705    0.0000    0.0000 C   0  0  0  0  0  0  0  0  0  0  0  0
    4.8705    0.0000    0.0000 C   0  0  0  0  0  0  0  0  0  0  0  0
    3.0367    1.4624    0.0000 C   0  0  0  0  0  0  0  0  0  0  0  0
    2.1015    2.6351    0.0000 C   0  0  0  0  0  0  0  0  0  0  0  0
    2.2135    4.1309    0.0000 C   0  0  0  0  0  0  0  0  0  0  0  0
    3.5348    3.0773    0.0000 O   0  0  0  0  0  0  0  0  0  0  0  0
    0.7500    3.2860    0.0000 C   0  0  0  0  0  0  0  0  0  0  0  0
    1.0838    4.7484    0.0000 O   0  0  0  0  0  0  0  0  0  0  0  0
   -0.7500    3.2860    0.0000 C   0  0  0  0  0  0  0  0  0  0  0  0
   -0.9030    4.7781    0.0000 C   0  0  0  0  0  0  0  0  0  0  0  0
   -2.1015    2.6351    0.0000 C   0  0  0  0  0  0  0  0  0  0  0  0
   -3.0367    3.8079    0.0000 O   0  0  0  0  0  0  0  0  0  0  0  0
   -2.4887    5.2042    0.0000 C   0  0  0  0  0  0  0  0  0  0  0  0
   -1.0437    5.6069    0.0000 C   0  0  0  0  0  0  0  0  0  0  0  0
   -3.4239    6.3769    0.0000 O   0  0  0  0  0  0  0  0  0  0  0  0
   -3.0367    1.4624    0.0000 C   0  0  0  0  0  0  0  0  0  0  0  0
   -4.2987    2.2731    0.0000 C   0  0  0  0  0  0  0  0  0  0  0  0
   -3.3705    0.0000    0.0000 C   0  0  0  0  0  0  0  0  0  0  0  0
   -4.8705    0.0000    0.0000 C   0  0  0  0  0  0  0  0  0  0  0  0
   -5.6205   -1.2990    0.0000 C   0  0  0  0  0  0  0  0  0  0  0  0
   -5.6205    1.2990    0.0000 C   0  0  0  0  0  0  0  0  0  0  0  0
   -7.1205    1.2990    0.0000 C   0  0  0  0  0  0  0  0  0  0  0  0
   -5.0344    2.6798    0.0000 O   0  0  0  0  0  0  0  0  0  0  0  0
   -3.0367   -1.4624    0.0000 O   0  0  0  0  0  0  0  0  0  0  0  0
   -2.1015   -2.6351    0.0000 C   0  0  0  0  0  0  0  0  0  0  0  0
   -3.0367   -3.8079    0.0000 O   0  0  0  0  0  0  0  0  0  0  0  0
   -0.7500   -3.2860    0.0000 C   0  0  0  0  0  0  0  0  0  0  0  0
   -1.0838   -4.7484    0.0000 C   0  0  0  0  0  0  0  0  0  0  0  0
    0.7500   -3.2860    0.0000 C   0  0  0  0  0  0  0  0  0  0  0  0
    1.0838   -4.7484    0.0000 O   0  0  0  0  0  0  0  0  0  0  0  0
    2.5171   -5.1905    0.0000 C   0  0  0  0  0  0  0  0  0  0  0  0
    2.8509   -6.6529    0.0000 C   0  0  0  0  0  0  0  0  0  0  0  0
    4.2843   -7.0950    0.0000 C   0  0  0  0  0  0  0  0  0  0  0  0
    5.4800   -8.0007    0.0000 C   0  0  0  0  0  0  0  0  0  0  0  0
    3.6000   -8.4298    0.0000 O   0  0  0  0  0  0  0  0  0  0  0  0
    4.4138   -9.6899    0.0000 C   0  0  0  0  0  0  0  0  0  0  0  0
    5.3839   -6.0748    0.0000 C   0  0  0  0  0  0  0  0  0  0  0  0
    6.8172   -6.5169    0.0000 O   0  0  0  0  0  0  0  0  0  0  0  0
    7.1510   -7.9793    0.0000 C   0  0  0  0  0  0  0  0  0  0  0  0
    8.5844   -8.4214    0.0000 C   0  0  0  0  0  0  0  0  0  0  0  0
    6.0514   -8.9995    0.0000 O   0  0  0  0  0  0  0  0  0  0  0  0
    5.0501   -4.6124    0.0000 C   0  0  0  0  0  0  0  0  0  0  0  0
    6.1497   -3.5921    0.0000 C   0  0  0  0  0  0  0  0  0  0  0  0
    3.6167   -4.1702    0.0000 O   0  0  0  0  0  0  0  0  0  0  0  0
    2.1015   -2.6351    0.0000 C   0  0  0  0  0  0  0  0  0  0  0  0
    3.0367   -3.8079    0.0000 C   0  0  0  0  0  0  0  0  0  0  0  0
    5.8517   -4.2598    0.0000 C   0  0  0  0  0  0  0  0  0  0  0  0
    7.0910   -3.4149    0.0000 O   0  0  0  0  0  0  0  0  0  0  0  0
  1  2  1  0
  2  3  1  0
  3  4  1  0
  4  5  1  0
  5  6  1  0
  5  7  1  0
  7  8  1  0
  8  9  1  0
  9 10  1  0
 10 11  1  0
 11 12  1  0
 11 13  1  0
 13 14  1  0
 14 15  1  0
 14 16  1  0
 14 17  1  0
 17 18  2  0
 17 19  1  0
 19 20  1  0
 19 21  1  0
 21 22  1  0
 22 23  1  0
 23 24  1  0
 23 25  2  0
 21 26  1  0
 26 27  1  0
 26 28  1  0
 28 29  1  0
 29 30  1  0
 29 31  1  0
 31 32  1  0
 31 33  1  0
 28 34  1  0
 34 35  1  0
 35 36  2  0
 35 37  1  0
 37 38  1  0
 37 39  1  0
 39 40  1  0
 40 41  1  0
 41 42  1  0
 42 43  1  0
 43 44  1  0
 43 45  1  0
 45 46  1  0
 43 47  1  0
 47 48  1  0
 48 49  1  0
 49 50  1  0
 49 51  2  0
 47 52  1  0
 52 53  1  0
 52 54  1  0
 39 55  1  0
 55 56  1  0
  8 57  1  0
 57 58  1  0
 57  3  1  0
 55 10  1  0
 54 41  1  0
M  END
>  <ChEMBL_IDs>  (517) 
nan

>  <target_organism>  (517) 
nan

>  <target_molecule_pref_name>  (517) 
nan

>  <# Known Targets>  (517) 
nan

>  <Known Targets>  (517) 
nan

>  <smiles>  (517) 
COC1CC(C)OC(OC2C(C)CC(C)(O)C(=O)C(C)C(OC(C)=O)C(C)C(C(C)C(C)O)OC(=O)C(C)C(OC3CC(C)(OC)C(OC(C)=O)C(C)O3)C2C)C1O

$$$$

     RDKit          2D

 58 60  0  0  0  0  0  0  0  0999 V2000
    8.5546   -5.5615    0.0000 C   0  0  0  0  0  0  0  0  0  0  0  0
    7.3152   -6.4065    0.0000 O   0  0  0  0  0  0  0  0  0  0  0  0
    5.9638   -5.7557    0.0000 C   0  0  0  0  0  0  0  0  0  0  0  0
    4.7244   -6.6006    0.0000 C   0  0  0  0  0  0  0  0  0  0  0  0
    3.3730   -5.9498    0.0000 C   0  0  0  0  0  0  0  0  0  0  0  0
    2.1336   -6.7948    0.0000 C   0  0  0  0  0  0  0  0  0  0  0  0
    3.2609   -4.4540    0.0000 O   0  0  0  0  0  0  0  0  0  0  0  0
    4.5002   -3.6090    0.0000 C   0  0  0  0  0  0  0  0  0  0  0  0
    4.3881   -2.1132    0.0000 O   0  0  0  0  0  0  0  0  0  0  0  0
    3.0367   -1.4624    0.0000 C   0  0  0  0  0  0  0  0  0  0  0  0
    3.3705    0.0000    0.0000 C   0  0  0  0  0  0  0  0  0  0  0  0
    4.8705    0.0000    0.0000 C   0  0  0  0  0  0  0  0  0  0  0  0
    3.0367    1.4624    0.0000 C   0  0  0  0  0  0  0  0  0  0  0  0
    2.1015    2.6351    0.0000 C   0  0  0  0  0  0  0  0  0  0  0  0
    2.2135    4.1309    0.0000 C   0  0  0  0  0  0  0  0  0  0  0  0
    3.5348    3.0773    0.0000 O   0  0  0  0  0  0  0  0  0  0  0  0
    0.7500    3.2860    0.0000 C   0  0  0  0  0  0  0  0  0  0  0  0
    1.0838    4.7484    0.0000 O   0  0  0  0  0  0  0  0  0  0  0  0
   -0.7500    3.2860    0.0000 C   0  0  0  0  0  0  0  0  0  0  0  0
   -0.9030    4.7781    0.0000 C   0  0  0  0  0  0  0  0  0  0  0  0
   -2.1015    2.6351    0.0000 C   0  0  0  0  0  0  0  0  0  0  0  0
   -3.0367    3.8079    0.0000 O   0  0  0  0  0  0  0  0  0  0  0  0
   -2.4887    5.2042    0.0000 C   0  0  0  0  0  0  0  0  0  0  0  0
   -1.0437    5.6069    0.0000 C   0  0  0  0  0  0  0  0  0  0  0  0
   -3.4239    6.3769    0.0000 O   0  0  0  0  0  0  0  0  0  0  0  0
   -3.0367    1.4624    0.0000 C   0  0  0  0  0  0  0  0  0  0  0  0
   -4.2987    2.2731    0.0000 C   0  0  0  0  0  0  0  0  0  0  0  0
   -3.3705    0.0000    0.0000 C   0  0  0  0  0  0  0  0  0  0  0  0
   -4.8705    0.0000    0.0000 C   0  0  0  0  0  0  0  0  0  0  0  0
   -5.6205   -1.2990    0.0000 C   0  0  0  0  0  0  0  0  0  0  0  0
   -5.6205    1.2990    0.0000 C   0  0  0  0  0  0  0  0  0  0  0  0
   -7.1205    1.2990    0.0000 C   0  0  0  0  0  0  0  0  0  0  0  0
   -5.0344    2.6798    0.0000 O   0  0  0  0  0  0  0  0  0  0  0  0
   -3.0367   -1.4624    0.0000 O   0  0  0  0  0  0  0  0  0  0  0  0
   -2.1015   -2.6351    0.0000 C   0  0  0  0  0  0  0  0  0  0  0  0
   -3.0367   -3.8079    0.0000 O   0  0  0  0  0  0  0  0  0  0  0  0
   -0.7500   -3.2860    0.0000 C   0  0  0  0  0  0  0  0  0  0  0  0
   -1.0838   -4.7484    0.0000 C   0  0  0  0  0  0  0  0  0  0  0  0
    0.7500   -3.2860    0.0000 C   0  0  0  0  0  0  0  0  0  0  0  0
    1.0838   -4.7484    0.0000 O   0  0  0  0  0  0  0  0  0  0  0  0
    2.5171   -5.1905    0.0000 C   0  0  0  0  0  0  0  0  0  0  0  0
    2.8509   -6.6529    0.0000 C   0  0  0  0  0  0  0  0  0  0  0  0
    4.2843   -7.0950    0.0000 C   0  0  0  0  0  0  0  0  0  0  0  0
    5.4800   -8.0007    0.0000 C   0  0  0  0  0  0  0  0  0  0  0  0
    3.6000   -8.4298    0.0000 O   0  0  0  0  0  0  0  0  0  0  0  0
    4.4138   -9.6899    0.0000 C   0  0  0  0  0  0  0  0  0  0  0  0
    5.3839   -6.0748    0.0000 C   0  0  0  0  0  0  0  0  0  0  0  0
    6.8172   -6.5169    0.0000 O   0  0  0  0  0  0  0  0  0  0  0  0
    7.1510   -7.9793    0.0000 C   0  0  0  0  0  0  0  0  0  0  0  0
    8.5844   -8.4214    0.0000 C   0  0  0  0  0  0  0  0  0  0  0  0
    6.0514   -8.9995    0.0000 O   0  0  0  0  0  0  0  0  0  0  0  0
    5.0501   -4.6124    0.0000 C   0  0  0  0  0  0  0  0  0  0  0  0
    6.1497   -3.5921    0.0000 C   0  0  0  0  0  0  0  0  0  0  0  0
    3.6167   -4.1702    0.0000 O   0  0  0  0  0  0  0  0  0  0  0  0
    2.1015   -2.6351    0.0000 C   0  0  0  0  0  0  0  0  0  0  0  0
    3.0367   -3.8079    0.0000 C   0  0  0  0  0  0  0  0  0  0  0  0
    5.8517   -4.2598    0.0000 C   0  0  0  0  0  0  0  0  0  0  0  0
    7.0910   -3.4149    0.0000 O   0  0  0  0  0  0  0  0  0  0  0  0
  1  2  1  0
  2  3  1  0
  3  4  1  0
  4  5  1  0
  5  6  1  0
  5  7  1  0
  7  8  1  0
  8  9  1  0
  9 10  1  0
 10 11  1  0
 11 12  1  0
 11 13  1  0
 13 14  1  0
 14 15  1  0
 14 16  1  0
 14 17  1  0
 17 18  2  0
 17 19  1  0
 19 20  1  0
 19 21  1  0
 21 22  1  0
 22 23  1  0
 23 24  1  0
 23 25  2  0
 21 26  1  0
 26 27  1  0
 26 28  1  0
 28 29  1  0
 29 30  1  0
 29 31  1  0
 31 32  1  0
 31 33  1  0
 28 34  1  0
 34 35  1  0
 35 36  2  0
 35 37  1  0
 37 38  1  0
 37 39  1  0
 39 40  1  0
 40 41  1  0
 41 42  1  0
 42 43  1  0
 43 44  1  0
 43 45  1  0
 45 46  1  0
 43 47  1  0
 47 48  1  0
 48 49  1  0
 49 50  1  0
 49 51  2  0
 47 52  1  0
 52 53  1  0
 52 54  1  0
 39 55  1  0
 55 56  1  0
  8 57  1  0
 57 58  1  0
 57  3  1  0
 55 10  1  0
 54 41  1  0
M  END
>  <ChEMBL_IDs>  (518) 
nan

>  <target_organism>  (518) 
nan

>  <target_molecule_pref_name>  (518) 
nan

>  <# Known Targets>  (518) 
nan

>  <Known Targets>  (518) 
nan

>  <smiles>  (518) 
COC1CC(C)OC(OC2C(C)CC(C)(O)C(=O)C(C)C(OC(C)=O)C(C)C(C(C)C(C)O)OC(=O)C(C)C(OC3CC(C)(OC)C(OC(C)=O)C(C)O3)C2C)C1O

$$$$

     RDKit          2D

 58 60  0  0  0  0  0  0  0  0999 V2000
    8.5546   -5.5615    0.0000 C   0  0  0  0  0  0  0  0  0  0  0  0
    7.3152   -6.4065    0.0000 O   0  0  0  0  0  0  0  0  0  0  0  0
    5.9638   -5.7557    0.0000 C   0  0  0  0  0  0  0  0  0  0  0  0
    4.7244   -6.6006    0.0000 C   0  0  0  0  0  0  0  0  0  0  0  0
    3.3730   -5.9498    0.0000 C   0  0  0  0  0  0  0  0  0  0  0  0
    2.1336   -6.7948    0.0000 C   0  0  0  0  0  0  0  0  0  0  0  0
    3.2609   -4.4540    0.0000 O   0  0  0  0  0  0  0  0  0  0  0  0
    4.5002   -3.6090    0.0000 C   0  0  0  0  0  0  0  0  0  0  0  0
    4.3881   -2.1132    0.0000 O   0  0  0  0  0  0  0  0  0  0  0  0
    3.0367   -1.4624    0.0000 C   0  0  0  0  0  0  0  0  0  0  0  0
    3.3705    0.0000    0.0000 C   0  0  0  0  0  0  0  0  0  0  0  0
    4.8705    0.0000    0.0000 C   0  0  0  0  0  0  0  0  0  0  0  0
    3.0367    1.4624    0.0000 C   0  0  0  0  0  0  0  0  0  0  0  0
    2.1015    2.6351    0.0000 C   0  0  0  0  0  0  0  0  0  0  0  0
    2.2135    4.1309    0.0000 C   0  0  0  0  0  0  0  0  0  0  0  0
    3.5348    3.0773    0.0000 O   0  0  0  0  0  0  0  0  0  0  0  0
    0.7500    3.2860    0.0000 C   0  0  0  0  0  0  0  0  0  0  0  0
    1.0838    4.7484    0.0000 O   0  0  0  0  0  0  0  0  0  0  0  0
   -0.7500    3.2860    0.0000 C   0  0  0  0  0  0  0  0  0  0  0  0
   -0.9030    4.7781    0.0000 C   0  0  0  0  0  0  0  0  0  0  0  0
   -2.1015    2.6351    0.0000 C   0  0  0  0  0  0  0  0  0  0  0  0
   -3.0367    3.8079    0.0000 O   0  0  0  0  0  0  0  0  0  0  0  0
   -2.4887    5.2042    0.0000 C   0  0  0  0  0  0  0  0  0  0  0  0
   -1.0437    5.6069    0.0000 C   0  0  0  0  0  0  0  0  0  0  0  0
   -3.4239    6.3769    0.0000 O   0  0  0  0  0  0  0  0  0  0  0  0
   -3.0367    1.4624    0.0000 C   0  0  0  0  0  0  0  0  0  0  0  0
   -4.2987    2.2731    0.0000 C   0  0  0  0  0  0  0  0  0  0  0  0
   -3.3705    0.0000    0.0000 C   0  0  0  0  0  0  0  0  0  0  0  0
   -4.8705    0.0000    0.0000 C   0  0  0  0  0  0  0  0  0  0  0  0
   -5.6205   -1.2990    0.0000 C   0  0  0  0  0  0  0  0  0  0  0  0
   -5.6205    1.2990    0.0000 C   0  0  0  0  0  0  0  0  0  0  0  0
   -7.1205    1.2990    0.0000 C   0  0  0  0  0  0  0  0  0  0  0  0
   -5.0344    2.6798    0.0000 O   0  0  0  0  0  0  0  0  0  0  0  0
   -3.0367   -1.4624    0.0000 O   0  0  0  0  0  0  0  0  0  0  0  0
   -2.1015   -2.6351    0.0000 C   0  0  0  0  0  0  0  0  0  0  0  0
   -3.0367   -3.8079    0.0000 O   0  0  0  0  0  0  0  0  0  0  0  0
   -0.7500   -3.2860    0.0000 C   0  0  0  0  0  0  0  0  0  0  0  0
   -1.0838   -4.7484    0.0000 C   0  0  0  0  0  0  0  0  0  0  0  0
    0.7500   -3.2860    0.0000 C   0  0  0  0  0  0  0  0  0  0  0  0
    1.0838   -4.7484    0.0000 O   0  0  0  0  0  0  0  0  0  0  0  0
    2.5171   -5.1905    0.0000 C   0  0  0  0  0  0  0  0  0  0  0  0
    2.8509   -6.6529    0.0000 C   0  0  0  0  0  0  0  0  0  0  0  0
    4.2843   -7.0950    0.0000 C   0  0  0  0  0  0  0  0  0  0  0  0
    5.4800   -8.0007    0.0000 C   0  0  0  0  0  0  0  0  0  0  0  0
    3.6000   -8.4298    0.0000 O   0  0  0  0  0  0  0  0  0  0  0  0
    4.4138   -9.6899    0.0000 C   0  0  0  0  0  0  0  0  0  0  0  0
    5.3839   -6.0748    0.0000 C   0  0  0  0  0  0  0  0  0  0  0  0
    6.8172   -6.5169    0.0000 O   0  0  0  0  0  0  0  0  0  0  0  0
    7.1510   -7.9793    0.0000 C   0  0  0  0  0  0  0  0  0  0  0  0
    8.5844   -8.4214    0.0000 C   0  0  0  0  0  0  0  0  0  0  0  0
    6.0514   -8.9995    0.0000 O   0  0  0  0  0  0  0  0  0  0  0  0
    5.0501   -4.6124    0.0000 C   0  0  0  0  0  0  0  0  0  0  0  0
    6.1497   -3.5921    0.0000 C   0  0  0  0  0  0  0  0  0  0  0  0
    3.6167   -4.1702    0.0000 O   0  0  0  0  0  0  0  0  0  0  0  0
    2.1015   -2.6351    0.0000 C   0  0  0  0  0  0  0  0  0  0  0  0
    3.0367   -3.8079    0.0000 C   0  0  0  0  0  0  0  0  0  0  0  0
    5.8517   -4.2598    0.0000 C   0  0  0  0  0  0  0  0  0  0  0  0
    7.0910   -3.4149    0.0000 O   0  0  0  0  0  0  0  0  0  0  0  0
  1  2  1  0
  2  3  1  0
  3  4  1  0
  4  5  1  0
  5  6  1  0
  5  7  1  0
  7  8  1  0
  8  9  1  0
  9 10  1  0
 10 11  1  0
 11 12  1  0
 11 13  1  0
 13 14  1  0
 14 15  1  0
 14 16  1  0
 14 17  1  0
 17 18  2  0
 17 19  1  0
 19 20  1  0
 19 21  1  0
 21 22  1  0
 22 23  1  0
 23 24  1  0
 23 25  2  0
 21 26  1  0
 26 27  1  0
 26 28  1  0
 28 29  1  0
 29 30  1  0
 29 31  1  0
 31 32  1  0
 31 33  1  0
 28 34  1  0
 34 35  1  0
 35 36  2  0
 35 37  1  0
 37 38  1  0
 37 39  1  0
 39 40  1  0
 40 41  1  0
 41 42  1  0
 42 43  1  0
 43 44  1  0
 43 45  1  0
 45 46  1  0
 43 47  1  0
 47 48  1  0
 48 49  1  0
 49 50  1  0
 49 51  2  0
 47 52  1  0
 52 53  1  0
 52 54  1  0
 39 55  1  0
 55 56  1  0
  8 57  1  0
 57 58  1  0
 57  3  1  0
 55 10  1  0
 54 41  1  0
M  END
>  <ChEMBL_IDs>  (519) 
nan

>  <target_organism>  (519) 
nan

>  <target_molecule_pref_name>  (519) 
nan

>  <# Known Targets>  (519) 
nan

>  <Known Targets>  (519) 
nan

>  <smiles>  (519) 
COC1CC(C)OC(OC2C(C)CC(C)(O)C(=O)C(C)C(OC(C)=O)C(C)C(C(C)C(C)O)OC(=O)C(C)C(OC3CC(C)(OC)C(OC(C)=O)C(C)O3)C2C)C1O

$$$$

     RDKit          2D

 58 60  0  0  0  0  0  0  0  0999 V2000
    8.5546   -5.5615    0.0000 C   0  0  0  0  0  0  0  0  0  0  0  0
    7.3152   -6.4065    0.0000 O   0  0  0  0  0  0  0  0  0  0  0  0
    5.9638   -5.7557    0.0000 C   0  0  0  0  0  0  0  0  0  0  0  0
    4.7244   -6.6006    0.0000 C   0  0  0  0  0  0  0  0  0  0  0  0
    3.3730   -5.9498    0.0000 C   0  0  0  0  0  0  0  0  0  0  0  0
    2.1336   -6.7948    0.0000 C   0  0  0  0  0  0  0  0  0  0  0  0
    3.2609   -4.4540    0.0000 O   0  0  0  0  0  0  0  0  0  0  0  0
    4.5002   -3.6090    0.0000 C   0  0  0  0  0  0  0  0  0  0  0  0
    4.3881   -2.1132    0.0000 O   0  0  0  0  0  0  0  0  0  0  0  0
    3.0367   -1.4624    0.0000 C   0  0  0  0  0  0  0  0  0  0  0  0
    3.3705    0.0000    0.0000 C   0  0  0  0  0  0  0  0  0  0  0  0
    4.8705    0.0000    0.0000 C   0  0  0  0  0  0  0  0  0  0  0  0
    3.0367    1.4624    0.0000 C   0  0  0  0  0  0  0  0  0  0  0  0
    2.1015    2.6351    0.0000 C   0  0  0  0  0  0  0  0  0  0  0  0
    2.2135    4.1309    0.0000 C   0  0  0  0  0  0  0  0  0  0  0  0
    3.5348    3.0773    0.0000 O   0  0  0  0  0  0  0  0  0  0  0  0
    0.7500    3.2860    0.0000 C   0  0  0  0  0  0  0  0  0  0  0  0
    1.0838    4.7484    0.0000 O   0  0  0  0  0  0  0  0  0  0  0  0
   -0.7500    3.2860    0.0000 C   0  0  0  0  0  0  0  0  0  0  0  0
   -0.9030    4.7781    0.0000 C   0  0  0  0  0  0  0  0  0  0  0  0
   -2.1015    2.6351    0.0000 C   0  0  0  0  0  0  0  0  0  0  0  0
   -3.0367    3.8079    0.0000 O   0  0  0  0  0  0  0  0  0  0  0  0
   -2.4887    5.2042    0.0000 C   0  0  0  0  0  0  0  0  0  0  0  0
   -1.0437    5.6069    0.0000 C   0  0  0  0  0  0  0  0  0  0  0  0
   -3.4239    6.3769    0.0000 O   0  0  0  0  0  0  0  0  0  0  0  0
   -3.0367    1.4624    0.0000 C   0  0  0  0  0  0  0  0  0  0  0  0
   -4.2987    2.2731    0.0000 C   0  0  0  0  0  0  0  0  0  0  0  0
   -3.3705    0.0000    0.0000 C   0  0  0  0  0  0  0  0  0  0  0  0
   -4.8705    0.0000    0.0000 C   0  0  0  0  0  0  0  0  0  0  0  0
   -5.6205   -1.2990    0.0000 C   0  0  0  0  0  0  0  0  0  0  0  0
   -5.6205    1.2990    0.0000 C   0  0  0  0  0  0  0  0  0  0  0  0
   -7.1205    1.2990    0.0000 C   0  0  0  0  0  0  0  0  0  0  0  0
   -5.0344    2.6798    0.0000 O   0  0  0  0  0  0  0  0  0  0  0  0
   -3.0367   -1.4624    0.0000 O   0  0  0  0  0  0  0  0  0  0  0  0
   -2.1015   -2.6351    0.0000 C   0  0  0  0  0  0  0  0  0  0  0  0
   -3.0367   -3.8079    0.0000 O   0  0  0  0  0  0  0  0  0  0  0  0
   -0.7500   -3.2860    0.0000 C   0  0  0  0  0  0  0  0  0  0  0  0
   -1.0838   -4.7484    0.0000 C   0  0  0  0  0  0  0  0  0  0  0  0
    0.7500   -3.2860    0.0000 C   0  0  0  0  0  0  0  0  0  0  0  0
    1.0838   -4.7484    0.0000 O   0  0  0  0  0  0  0  0  0  0  0  0
    2.5171   -5.1905    0.0000 C   0  0  0  0  0  0  0  0  0  0  0  0
    2.8509   -6.6529    0.0000 C   0  0  0  0  0  0  0  0  0  0  0  0
    4.2843   -7.0950    0.0000 C   0  0  0  0  0  0  0  0  0  0  0  0
    5.4800   -8.0007    0.0000 C   0  0  0  0  0  0  0  0  0  0  0  0
    3.6000   -8.4298    0.0000 O   0  0  0  0  0  0  0  0  0  0  0  0
    4.4138   -9.6899    0.0000 C   0  0  0  0  0  0  0  0  0  0  0  0
    5.3839   -6.0748    0.0000 C   0  0  0  0  0  0  0  0  0  0  0  0
    6.8172   -6.5169    0.0000 O   0  0  0  0  0  0  0  0  0  0  0  0
    7.1510   -7.9793    0.0000 C   0  0  0  0  0  0  0  0  0  0  0  0
    8.5844   -8.4214    0.0000 C   0  0  0  0  0  0  0  0  0  0  0  0
    6.0514   -8.9995    0.0000 O   0  0  0  0  0  0  0  0  0  0  0  0
    5.0501   -4.6124    0.0000 C   0  0  0  0  0  0  0  0  0  0  0  0
    6.1497   -3.5921    0.0000 C   0  0  0  0  0  0  0  0  0  0  0  0
    3.6167   -4.1702    0.0000 O   0  0  0  0  0  0  0  0  0  0  0  0
    2.1015   -2.6351    0.0000 C   0  0  0  0  0  0  0  0  0  0  0  0
    3.0367   -3.8079    0.0000 C   0  0  0  0  0  0  0  0  0  0  0  0
    5.8517   -4.2598    0.0000 C   0  0  0  0  0  0  0  0  0  0  0  0
    7.0910   -3.4149    0.0000 O   0  0  0  0  0  0  0  0  0  0  0  0
  1  2  1  0
  2  3  1  0
  3  4  1  0
  4  5  1  0
  5  6  1  0
  5  7  1  0
  7  8  1  0
  8  9  1  0
  9 10  1  0
 10 11  1  0
 11 12  1  0
 11 13  1  0
 13 14  1  0
 14 15  1  0
 14 16  1  0
 14 17  1  0
 17 18  2  0
 17 19  1  0
 19 20  1  0
 19 21  1  0
 21 22  1  0
 22 23  1  0
 23 24  1  0
 23 25  2  0
 21 26  1  0
 26 27  1  0
 26 28  1  0
 28 29  1  0
 29 30  1  0
 29 31  1  0
 31 32  1  0
 31 33  1  0
 28 34  1  0
 34 35  1  0
 35 36  2  0
 35 37  1  0
 37 38  1  0
 37 39  1  0
 39 40  1  0
 40 41  1  0
 41 42  1  0
 42 43  1  0
 43 44  1  0
 43 45  1  0
 45 46  1  0
 43 47  1  0
 47 48  1  0
 48 49  1  0
 49 50  1  0
 49 51  2  0
 47 52  1  0
 52 53  1  0
 52 54  1  0
 39 55  1  0
 55 56  1  0
  8 57  1  0
 57 58  1  0
 57  3  1  0
 55 10  1  0
 54 41  1  0
M  END
>  <ChEMBL_IDs>  (520) 
nan

>  <target_organism>  (520) 
nan

>  <target_molecule_pref_name>  (520) 
nan

>  <# Known Targets>  (520) 
nan

>  <Known Targets>  (520) 
nan

>  <smiles>  (520) 
COC1CC(C)OC(OC2C(C)CC(C)(O)C(=O)C(C)C(OC(C)=O)C(C)C(C(C)C(C)O)OC(=O)C(C)C(OC3CC(C)(OC)C(OC(C)=O)C(C)O3)C2C)C1O

$$$$

     RDKit          2D

 57 59  0  0  0  0  0  0  0  0999 V2000
   10.1205    3.8971    0.0000 C   0  0  0  0  0  0  0  0  0  0  0  0
    9.3705    2.5981    0.0000 C   0  0  0  0  0  0  0  0  0  0  0  0
    7.8705    2.5981    0.0000 C   0  0  0  0  0  0  0  0  0  0  0  0
    7.1205    1.2990    0.0000 C   0  0  0  0  0  0  0  0  0  0  0  0
    5.6205    1.2990    0.0000 C   0  0  0  0  0  0  0  0  0  0  0  0
    4.8705    2.5981    0.0000 O   0  0  0  0  0  0  0  0  0  0  0  0
    4.8705    0.0000    0.0000 O   0  0  0  0  0  0  0  0  0  0  0  0
    3.3705    0.0000    0.0000 C   0  0  0  0  0  0  0  0  0  0  0  0
    3.0367   -1.4624    0.0000 C   0  0  0  0  0  0  0  0  0  0  0  0
    4.3881   -2.1132    0.0000 C   0  0  0  0  0  0  0  0  0  0  0  0
    2.1015   -2.6351    0.0000 C   0  0  0  0  0  0  0  0  0  0  0  0
    3.0367   -3.8079    0.0000 O   0  0  0  0  0  0  0  0  0  0  0  0
    0.7500   -3.2860    0.0000 C   0  0  0  0  0  0  0  0  0  0  0  0
    1.0838   -4.7484    0.0000 C   0  0  0  0  0  0  0  0  0  0  0  0
   -0.7500   -3.2860    0.0000 C   0  0  0  0  0  0  0  0  0  0  0  0
   -2.1015   -2.6351    0.0000 C   0  0  0  0  0  0  0  0  0  0  0  0
   -2.2135   -4.1309    0.0000 C   0  0  0  0  0  0  0  0  0  0  0  0
   -3.5348   -3.0773    0.0000 O   0  0  0  0  0  0  0  0  0  0  0  0
   -3.0367   -1.4624    0.0000 C   0  0  0  0  0  0  0  0  0  0  0  0
   -4.3881   -2.1132    0.0000 O   0  0  0  0  0  0  0  0  0  0  0  0
   -4.5002   -3.6090    0.0000 C   0  0  0  0  0  0  0  0  0  0  0  0
   -3.2609   -4.4540    0.0000 O   0  0  0  0  0  0  0  0  0  0  0  0
   -3.3730   -5.9498    0.0000 C   0  0  0  0  0  0  0  0  0  0  0  0
   -2.1336   -6.7948    0.0000 C   0  0  0  0  0  0  0  0  0  0  0  0
   -4.7244   -6.6006    0.0000 C   0  0  0  0  0  0  0  0  0  0  0  0
   -5.9638   -5.7557    0.0000 C   0  0  0  0  0  0  0  0  0  0  0  0
   -7.3152   -6.4065    0.0000 N   0  0  0  0  0  0  0  0  0  0  0  0
   -7.4273   -7.9023    0.0000 C   0  0  0  0  0  0  0  0  0  0  0  0
   -8.5546   -5.5615    0.0000 C   0  0  0  0  0  0  0  0  0  0  0  0
   -5.8517   -4.2598    0.0000 C   0  0  0  0  0  0  0  0  0  0  0  0
   -7.0910   -3.4149    0.0000 O   0  0  0  0  0  0  0  0  0  0  0  0
   -3.3705    0.0000    0.0000 C   0  0  0  0  0  0  0  0  0  0  0  0
   -4.8705    0.0000    0.0000 C   0  0  0  0  0  0  0  0  0  0  0  0
   -3.0367    1.4624    0.0000 C   0  0  0  0  0  0  0  0  0  0  0  0
   -4.3881    2.1132    0.0000 O   0  0  0  0  0  0  0  0  0  0  0  0
   -4.5002    3.6090    0.0000 C   0  0  0  0  0  0  0  0  0  0  0  0
   -5.8517    4.2598    0.0000 C   0  0  0  0  0  0  0  0  0  0  0  0
   -5.9638    5.7557    0.0000 C   0  0  0  0  0  0  0  0  0  0  0  0
   -6.5807    7.1229    0.0000 C   0  0  0  0  0  0  0  0  0  0  0  0
   -7.4174    5.3855    0.0000 O   0  0  0  0  0  0  0  0  0  0  0  0
   -8.4648    6.4593    0.0000 C   0  0  0  0  0  0  0  0  0  0  0  0
   -4.7244    6.6006    0.0000 C   0  0  0  0  0  0  0  0  0  0  0  0
   -4.8365    8.0964    0.0000 O   0  0  0  0  0  0  0  0  0  0  0  0
   -3.3730    5.9498    0.0000 C   0  0  0  0  0  0  0  0  0  0  0  0
   -2.1336    6.7948    0.0000 C   0  0  0  0  0  0  0  0  0  0  0  0
   -3.2609    4.4540    0.0000 O   0  0  0  0  0  0  0  0  0  0  0  0
   -2.1015    2.6351    0.0000 C   0  0  0  0  0  0  0  0  0  0  0  0
   -2.6628    3.8629    0.0000 C   0  0  0  0  0  0  0  0  0  0  0  0
   -0.7500    3.2860    0.0000 C   0  0  0  0  0  0  0  0  0  0  0  0
   -1.0838    4.7484    0.0000 O   0  0  0  0  0  0  0  0  0  0  0  0
    0.7500    3.2860    0.0000 O   0  0  0  0  0  0  0  0  0  0  0  0
    2.1015    2.6351    0.0000 C   0  0  0  0  0  0  0  0  0  0  0  0
    3.0367    3.8079    0.0000 C   0  0  0  0  0  0  0  0  0  0  0  0
    4.5199    3.5843    0.0000 C   0  0  0  0  0  0  0  0  0  0  0  0
    3.0367    1.4624    0.0000 C   0  0  0  0  0  0  0  0  0  0  0  0
    3.7867    2.7614    0.0000 C   0  0  0  0  0  0  0  0  0  0  0  0
    4.5199    1.2388    0.0000 O   0  0  0  0  0  0  0  0  0  0  0  0
  1  2  2  0
  2  3  1  0
  3  4  1  0
  4  5  1  0
  5  6  2  0
  5  7  1  0
  7  8  1  0
  8  9  1  0
  9 10  1  0
  9 11  1  0
 11 12  2  0
 11 13  1  0
 13 14  1  0
 13 15  1  0
 15 16  1  0
 16 17  1  0
 16 18  1  0
 16 19  1  0
 19 20  1  0
 20 21  1  0
 21 22  1  0
 22 23  1  0
 23 24  1  0
 23 25  1  0
 25 26  1  0
 26 27  1  0
 27 28  1  0
 27 29  1  0
 26 30  1  0
 30 31  1  0
 19 32  1  0
 32 33  1  0
 32 34  1  0
 34 35  1  0
 35 36  1  0
 36 37  1  0
 37 38  1  0
 38 39  1  0
 38 40  1  0
 40 41  1  0
 38 42  1  0
 42 43  1  0
 42 44  1  0
 44 45  1  0
 44 46  1  0
 34 47  1  0
 47 48  1  0
 47 49  1  0
 49 50  2  0
 49 51  1  0
 51 52  1  0
 52 53  1  0
 53 54  1  0
 52 55  1  0
 55 56  1  0
 55 57  1  0
 55  8  1  0
 30 21  1  0
 46 36  1  0
M  END
>  <ChEMBL_IDs>  (521) 
nan

>  <target_organism>  (521) 
nan

>  <target_molecule_pref_name>  (521) 
nan

>  <# Known Targets>  (521) 
nan

>  <Known Targets>  (521) 
nan

>  <smiles>  (521) 
C=CCCC(=O)OC1C(C)C(=O)C(C)CC(C)(O)C(OC2OC(C)CC(N(C)C)C2O)C(C)C(OC2CC(C)(OC)C(O)C(C)O2)C(C)C(=O)OC(CC)C1(C)O

$$$$

     RDKit          2D

 58 60  0  0  0  0  0  0  0  0999 V2000
   -0.1209  -11.4764    0.0000 C   0  0  0  0  0  0  0  0  0  0  0  0
    1.1184  -10.6314    0.0000 C   0  0  0  0  0  0  0  0  0  0  0  0
    2.4699  -11.2822    0.0000 C   0  0  0  0  0  0  0  0  0  0  0  0
    3.7093  -10.4372    0.0000 N   0  0  0  0  0  0  0  0  0  0  0  0
    3.5972   -8.9414    0.0000 C   0  0  0  0  0  0  0  0  0  0  0  0
    2.2457   -8.2906    0.0000 O   0  0  0  0  0  0  0  0  0  0  0  0
    4.8365   -8.0964    0.0000 O   0  0  0  0  0  0  0  0  0  0  0  0
    4.7244   -6.6006    0.0000 C   0  0  0  0  0  0  0  0  0  0  0  0
    3.3730   -5.9498    0.0000 C   0  0  0  0  0  0  0  0  0  0  0  0
    2.1336   -6.7948    0.0000 C   0  0  0  0  0  0  0  0  0  0  0  0
    3.2609   -4.4540    0.0000 O   0  0  0  0  0  0  0  0  0  0  0  0
    4.5002   -3.6090    0.0000 C   0  0  0  0  0  0  0  0  0  0  0  0
    4.3881   -2.1132    0.0000 O   0  0  0  0  0  0  0  0  0  0  0  0
    3.0367   -1.4624    0.0000 C   0  0  0  0  0  0  0  0  0  0  0  0
    3.3705    0.0000    0.0000 C   0  0  0  0  0  0  0  0  0  0  0  0
    4.6804   -0.3267    0.0000 C   0  0  0  0  0  0  0  0  0  0  0  0
    3.0367    1.4624    0.0000 C   0  0  0  0  0  0  0  0  0  0  0  0
    4.3881    2.1132    0.0000 O   0  0  0  0  0  0  0  0  0  0  0  0
    5.6275    1.2682    0.0000 C   0  0  0  0  0  0  0  0  0  0  0  0
    5.5154   -0.2276    0.0000 O   0  0  0  0  0  0  0  0  0  0  0  0
    6.7548   -1.0725    0.0000 C   0  0  0  0  0  0  0  0  0  0  0  0
    6.6427   -2.5684    0.0000 C   0  0  0  0  0  0  0  0  0  0  0  0
    8.1062   -0.4217    0.0000 C   0  0  0  0  0  0  0  0  0  0  0  0
    8.2183    1.0741    0.0000 C   0  0  0  0  0  0  0  0  0  0  0  0
    9.5698    1.7249    0.0000 N   0  0  0  0  0  0  0  0  0  0  0  0
   10.8091    0.8799    0.0000 C   0  0  0  0  0  0  0  0  0  0  0  0
    9.6819    3.2207    0.0000 C   0  0  0  0  0  0  0  0  0  0  0  0
    6.9790    1.9191    0.0000 C   0  0  0  0  0  0  0  0  0  0  0  0
    7.0910    3.4149    0.0000 O   0  0  0  0  0  0  0  0  0  0  0  0
    2.1015    2.6351    0.0000 C   0  0  0  0  0  0  0  0  0  0  0  0
    2.2135    4.1309    0.0000 C   0  0  0  0  0  0  0  0  0  0  0  0
    3.5348    3.0773    0.0000 O   0  0  0  0  0  0  0  0  0  0  0  0
    3.8686    4.5397    0.0000 C   0  0  0  0  0  0  0  0  0  0  0  0
    0.7500    3.2860    0.0000 C   0  0  0  0  0  0  0  0  0  0  0  0
   -0.7500    3.2860    0.0000 C   0  0  0  0  0  0  0  0  0  0  0  0
   -1.0838    4.7484    0.0000 C   0  0  0  0  0  0  0  0  0  0  0  0
   -2.1015    2.6351    0.0000 C   0  0  0  0  0  0  0  0  0  0  0  0
   -3.0367    3.8079    0.0000 O   0  0  0  0  0  0  0  0  0  0  0  0
   -3.0367    1.4624    0.0000 C   0  0  0  0  0  0  0  0  0  0  0  0
   -4.3881    2.1132    0.0000 C   0  0  0  0  0  0  0  0  0  0  0  0
   -3.3705    0.0000    0.0000 C   0  0  0  0  0  0  0  0  0  0  0  0
   -4.8705    0.0000    0.0000 O   0  0  0  0  0  0  0  0  0  0  0  0
   -3.0367   -1.4624    0.0000 C   0  0  0  0  0  0  0  0  0  0  0  0
   -3.7867   -2.7614    0.0000 C   0  0  0  0  0  0  0  0  0  0  0  0
   -4.5199   -1.2388    0.0000 O   0  0  0  0  0  0  0  0  0  0  0  0
   -2.1015   -2.6351    0.0000 C   0  0  0  0  0  0  0  0  0  0  0  0
   -3.0367   -3.8079    0.0000 C   0  0  0  0  0  0  0  0  0  0  0  0
   -4.5199   -3.5843    0.0000 C   0  0  0  0  0  0  0  0  0  0  0  0
   -0.7500   -3.2860    0.0000 O   0  0  0  0  0  0  0  0  0  0  0  0
    0.7500   -3.2860    0.0000 C   0  0  0  0  0  0  0  0  0  0  0  0
    1.0838   -4.7484    0.0000 O   0  0  0  0  0  0  0  0  0  0  0  0
    2.1015   -2.6351    0.0000 C   0  0  0  0  0  0  0  0  0  0  0  0
    2.6628   -3.8629    0.0000 C   0  0  0  0  0  0  0  0  0  0  0  0
    5.8517   -4.2598    0.0000 C   0  0  0  0  0  0  0  0  0  0  0  0
    5.9638   -5.7557    0.0000 C   0  0  0  0  0  0  0  0  0  0  0  0
    7.4174   -5.3855    0.0000 C   0  0  0  0  0  0  0  0  0  0  0  0
    6.5807   -7.1229    0.0000 O   0  0  0  0  0  0  0  0  0  0  0  0
    8.0733   -7.2723    0.0000 C   0  0  0  0  0  0  0  0  0  0  0  0
  1  2  1  0
  2  3  1  0
  3  4  2  0
  4  5  1  0
  5  6  2  0
  5  7  1  0
  8  7  1  1
  8  9  1  0
  9 10  1  6
  9 11  1  0
 11 12  1  0
 12 13  1  1
 14 13  1  6
 14 15  1  0
 15 16  1  1
 15 17  1  0
 17 18  1  6
 19 18  1  1
 19 20  1  0
 20 21  1  0
 21 22  1  1
 21 23  1  0
 23 24  1  0
 24 25  1  1
 25 26  1  0
 25 27  1  0
 24 28  1  0
 28 29  1  6
 17 30  1  0
 30 31  1  6
 30 32  1  0
 32 33  1  0
 30 34  1  0
 34 35  1  0
 35 36  1  6
 35 37  1  0
 37 38  2  0
 37 39  1  0
 39 40  1  1
 39 41  1  0
 41 42  1  6
 41 43  1  0
 43 44  1  6
 43 45  1  0
 43 46  1  0
 46 47  1  6
 47 48  1  0
 46 49  1  0
 49 50  1  0
 50 51  2  0
 50 52  1  0
 52 53  1  1
 12 54  1  0
 54 55  1  0
 55 56  1  6
 55 57  1  0
 57 58  1  0
 55  8  1  0
 52 14  1  0
 28 19  1  0
M  END
>  <ChEMBL_IDs>  (522) 
CHEMBL1668163

>  <target_organism>  (522) 
None

>  <target_molecule_pref_name>  (522) 
nan

>  <# Known Targets>  (522) 
nan

>  <Known Targets>  (522) 
nan

>  <smiles>  (522) 
CC/C=N\C(=O)O[C@H]1[C@H](C)O[C@@H](O[C@H]2[C@H](C)[C@@H](O[C@@H]3O[C@H](C)C[C@H](N(C)C)[C@H]3O)[C@](C)(OC)C[C@@H](C)C(=O)[C@H](C)[C@@H](O)[C@](C)(O)[C@@H](CC)OC(=O)[C@@H]2C)C[C@@]1(C)OC

$$$$

     RDKit          2D

 59 61  0  0  0  0  0  0  0  0999 V2000
   11.0333   -3.8715    0.0000 C   0  0  0  0  0  0  0  0  0  0  0  0
    9.6819   -3.2207    0.0000 O   0  0  0  0  0  0  0  0  0  0  0  0
    9.5698   -1.7249    0.0000 C   0  0  0  0  0  0  0  0  0  0  0  0
    8.2183   -1.0741    0.0000 C   0  0  0  0  0  0  0  0  0  0  0  0
    6.9790   -1.9191    0.0000 O   0  0  0  0  0  0  0  0  0  0  0  0
    5.6275   -1.2682    0.0000 C   0  0  0  0  0  0  0  0  0  0  0  0
    4.3881   -2.1132    0.0000 C   0  0  0  0  0  0  0  0  0  0  0  0
    4.5002   -3.6090    0.0000 C   0  0  0  0  0  0  0  0  0  0  0  0
    3.0367   -1.4624    0.0000 C   0  0  0  0  0  0  0  0  0  0  0  0
    3.3705    0.0000    0.0000 O   0  0  0  0  0  0  0  0  0  0  0  0
    3.0367    1.4624    0.0000 C   0  0  0  0  0  0  0  0  0  0  0  0
    4.3881    2.1132    0.0000 O   0  0  0  0  0  0  0  0  0  0  0  0
    2.1015    2.6351    0.0000 C   0  0  0  0  0  0  0  0  0  0  0  0
    3.0367    3.8079    0.0000 C   0  0  0  0  0  0  0  0  0  0  0  0
    0.7500    3.2860    0.0000 C   0  0  0  0  0  0  0  0  0  0  0  0
    1.0838    4.7484    0.0000 O   0  0  0  0  0  0  0  0  0  0  0  0
   -0.0158    5.7686    0.0000 C   0  0  0  0  0  0  0  0  0  0  0  0
    0.3180    7.2310    0.0000 C   0  0  0  0  0  0  0  0  0  0  0  0
   -0.7816    8.2513    0.0000 C   0  0  0  0  0  0  0  0  0  0  0  0
   -1.4659    9.5861    0.0000 C   0  0  0  0  0  0  0  0  0  0  0  0
    0.4141    9.1570    0.0000 O   0  0  0  0  0  0  0  0  0  0  0  0
   -2.2150    7.8091    0.0000 C   0  0  0  0  0  0  0  0  0  0  0  0
   -3.3145    8.8294    0.0000 O   0  0  0  0  0  0  0  0  0  0  0  0
   -2.5487    6.3467    0.0000 C   0  0  0  0  0  0  0  0  0  0  0  0
   -3.9821    5.9046    0.0000 C   0  0  0  0  0  0  0  0  0  0  0  0
   -1.4492    5.3265    0.0000 O   0  0  0  0  0  0  0  0  0  0  0  0
   -0.7500    3.2860    0.0000 C   0  0  0  0  0  0  0  0  0  0  0  0
   -1.3600    4.4903    0.0000 C   0  0  0  0  0  0  0  0  0  0  0  0
   -2.1015    2.6351    0.0000 C   0  0  0  0  0  0  0  0  0  0  0  0
   -3.0367    3.8079    0.0000 O   0  0  0  0  0  0  0  0  0  0  0  0
   -3.0367    1.4624    0.0000 C   0  0  0  0  0  0  0  0  0  0  0  0
   -4.3881    2.1132    0.0000 C   0  0  0  0  0  0  0  0  0  0  0  0
   -3.3705    0.0000    0.0000 C   0  0  0  0  0  0  0  0  0  0  0  0
   -3.0367   -1.4624    0.0000 C   0  0  0  0  0  0  0  0  0  0  0  0
   -3.7867   -2.7614    0.0000 C   0  0  0  0  0  0  0  0  0  0  0  0
   -4.5199   -1.2388    0.0000 O   0  0  0  0  0  0  0  0  0  0  0  0
   -2.1015   -2.6351    0.0000 C   0  0  0  0  0  0  0  0  0  0  0  0
   -3.0367   -3.8079    0.0000 O   0  0  0  0  0  0  0  0  0  0  0  0
   -0.7500   -3.2860    0.0000 C   0  0  0  0  0  0  0  0  0  0  0  0
   -1.0838   -4.7484    0.0000 C   0  0  0  0  0  0  0  0  0  0  0  0
    0.7500   -3.2860    0.0000 C   0  0  0  0  0  0  0  0  0  0  0  0
    1.0838   -4.7484    0.0000 O   0  0  0  0  0  0  0  0  0  0  0  0
    2.5171   -5.1905    0.0000 C   0  0  0  0  0  0  0  0  0  0  0  0
    3.7329   -4.3119    0.0000 O   0  0  0  0  0  0  0  0  0  0  0  0
    2.8509   -6.6529    0.0000 C   0  0  0  0  0  0  0  0  0  0  0  0
    1.7513   -7.6731    0.0000 O   0  0  0  0  0  0  0  0  0  0  0  0
    4.2843   -7.0950    0.0000 C   0  0  0  0  0  0  0  0  0  0  0  0
    4.6181   -8.5574    0.0000 C   0  0  0  0  0  0  0  0  0  0  0  0
    5.3839   -6.0748    0.0000 C   0  0  0  0  0  0  0  0  0  0  0  0
    2.1015   -2.6351    0.0000 C   0  0  0  0  0  0  0  0  0  0  0  0
    3.1727   -3.6851    0.0000 C   0  0  0  0  0  0  0  0  0  0  0  0
    8.1062    0.4217    0.0000 O   0  0  0  0  0  0  0  0  0  0  0  0
    9.3456    1.2667    0.0000 C   0  0  0  0  0  0  0  0  0  0  0  0
    9.2335    2.7625    0.0000 C   0  0  0  0  0  0  0  0  0  0  0  0
   10.6970    0.6159    0.0000 C   0  0  0  0  0  0  0  0  0  0  0  0
   11.9364    1.4609    0.0000 O   0  0  0  0  0  0  0  0  0  0  0  0
   10.8091   -0.8799    0.0000 C   0  0  0  0  0  0  0  0  0  0  0  0
   12.1606   -1.5308    0.0000 O   0  0  0  0  0  0  0  0  0  0  0  0
   12.2727   -3.0266    0.0000 C   0  0  0  0  0  0  0  0  0  0  0  0
  1  2  1  0
  2  3  1  0
  3  4  1  0
  4  5  1  0
  5  6  1  0
  6  7  1  0
  7  8  1  0
  7  9  1  0
  9 10  1  0
 10 11  1  0
 11 12  2  0
 11 13  1  0
 13 14  1  0
 13 15  1  0
 15 16  1  0
 16 17  1  0
 17 18  1  0
 18 19  1  0
 19 20  1  0
 19 21  1  0
 19 22  1  0
 22 23  1  0
 22 24  1  0
 24 25  1  0
 24 26  1  0
 15 27  1  0
 27 28  1  0
 27 29  1  0
 29 30  1  0
 29 31  1  0
 31 32  1  0
 31 33  1  0
 33 34  1  0
 34 35  1  0
 34 36  1  0
 34 37  1  0
 37 38  2  0
 37 39  1  0
 39 40  1  0
 39 41  1  0
 41 42  1  0
 42 43  1  0
 43 44  2  0
 43 45  1  0
 45 46  1  0
 45 47  1  0
 47 48  1  0
 47 49  1  0
 41 50  1  0
 50 51  1  0
  4 52  1  0
 52 53  1  0
 53 54  1  0
 53 55  1  0
 55 56  1  0
 55 57  1  0
 57 58  1  0
 58 59  1  0
 57  3  1  0
 50  9  1  0
 26 17  1  0
M  END
>  <ChEMBL_IDs>  (523) 
nan

>  <target_organism>  (523) 
nan

>  <target_molecule_pref_name>  (523) 
nan

>  <# Known Targets>  (523) 
nan

>  <Known Targets>  (523) 
nan

>  <smiles>  (523) 
COC1C(OCC(C)C2OC(=O)C(C)C(OC3CC(C)(O)C(O)C(C)O3)C(C)C(O)C(C)CC(C)(O)C(=O)C(C)C(OC(=O)C(O)C(C)C)C2C)OC(C)C(O)C1OC

$$$$

     RDKit          2D

 57 59  0  0  0  0  0  0  0  0999 V2000
    5.8573   -1.2990    0.0000 C   0  0  0  0  0  0  0  0  0  0  0  0
    5.1073    0.0000    0.0000 C   0  0  0  0  0  0  0  0  0  0  0  0
    3.6073    0.0000    0.0000 C   0  0  0  0  0  0  0  0  0  0  0  0
    3.2954    1.4672    0.0000 O   0  0  0  0  0  0  0  0  0  0  0  0
    2.4138    2.6807    0.0000 C   0  0  0  0  0  0  0  0  0  0  0  0
    3.4175    3.7955    0.0000 O   0  0  0  0  0  0  0  0  0  0  0  0
    1.1147    3.4307    0.0000 C   0  0  0  0  0  0  0  0  0  0  0  0
    1.8302    4.5756    0.0000 C   0  0  0  0  0  0  0  0  0  0  0  0
   -0.3771    3.5875    0.0000 C   0  0  0  0  0  0  0  0  0  0  0  0
   -0.5339    5.0793    0.0000 O   0  0  0  0  0  0  0  0  0  0  0  0
    0.6797    5.9610    0.0000 C   0  0  0  0  0  0  0  0  0  0  0  0
    0.5229    7.4528    0.0000 C   0  0  0  0  0  0  0  0  0  0  0  0
    1.7364    8.3345    0.0000 C   0  0  0  0  0  0  0  0  0  0  0  0
    2.5752    9.5780    0.0000 C   0  0  0  0  0  0  0  0  0  0  0  0
    0.6574    9.3764    0.0000 O   0  0  0  0  0  0  0  0  0  0  0  0
    1.0203   10.8319    0.0000 C   0  0  0  0  0  0  0  0  0  0  0  0
    3.1067    7.7244    0.0000 C   0  0  0  0  0  0  0  0  0  0  0  0
    3.4696    9.1798    0.0000 O   0  0  0  0  0  0  0  0  0  0  0  0
    4.6031    7.6197    0.0000 C   0  0  0  0  0  0  0  0  0  0  0  0
    6.0994    7.5151    0.0000 C   0  0  0  0  0  0  0  0  0  0  0  0
    7.5958    7.4105    0.0000 C   0  0  0  0  0  0  0  0  0  0  0  0
    8.4345    8.6540    0.0000 O   0  0  0  0  0  0  0  0  0  0  0  0
    9.9309    8.5494    0.0000 C   0  0  0  0  0  0  0  0  0  0  0  0
    3.2635    6.2326    0.0000 C   0  0  0  0  0  0  0  0  0  0  0  0
    4.6338    5.6225    0.0000 C   0  0  0  0  0  0  0  0  0  0  0  0
    2.0500    5.3509    0.0000 O   0  0  0  0  0  0  0  0  0  0  0  0
   -1.8037    3.1240    0.0000 C   0  0  0  0  0  0  0  0  0  0  0  0
   -2.5537    4.4231    0.0000 C   0  0  0  0  0  0  0  0  0  0  0  0
   -2.9184    2.1203    0.0000 C   0  0  0  0  0  0  0  0  0  0  0  0
   -4.1319    3.0020    0.0000 O   0  0  0  0  0  0  0  0  0  0  0  0
   -5.5022    2.3919    0.0000 C   0  0  0  0  0  0  0  0  0  0  0  0
   -6.7157    3.2736    0.0000 O   0  0  0  0  0  0  0  0  0  0  0  0
   -8.0861    2.6635    0.0000 C   0  0  0  0  0  0  0  0  0  0  0  0
   -9.2996    3.5451    0.0000 C   0  0  0  0  0  0  0  0  0  0  0  0
   -8.2428    1.1717    0.0000 C   0  0  0  0  0  0  0  0  0  0  0  0
   -7.0293    0.2900    0.0000 C   0  0  0  0  0  0  0  0  0  0  0  0
   -7.1861   -1.2018    0.0000 N   0  0  0  0  0  0  0  0  0  0  0  0
   -8.5564   -1.8119    0.0000 C   0  0  0  0  0  0  0  0  0  0  0  0
   -5.9726   -2.0835    0.0000 C   0  0  0  0  0  0  0  0  0  0  0  0
   -5.6590    0.9001    0.0000 C   0  0  0  0  0  0  0  0  0  0  0  0
   -5.0760    0.3564    0.0000 O   0  0  0  0  0  0  0  0  0  0  0  0
   -3.5285    0.7500    0.0000 C   0  0  0  0  0  0  0  0  0  0  0  0
   -4.2257    0.3635    0.0000 C   0  0  0  0  0  0  0  0  0  0  0  0
   -4.5705    1.8290    0.0000 O   0  0  0  0  0  0  0  0  0  0  0  0
   -3.5285   -0.7500    0.0000 C   0  0  0  0  0  0  0  0  0  0  0  0
   -2.9184   -2.1203    0.0000 C   0  0  0  0  0  0  0  0  0  0  0  0
   -4.1319   -3.0020    0.0000 C   0  0  0  0  0  0  0  0  0  0  0  0
   -1.8037   -3.1240    0.0000 C   0  0  0  0  0  0  0  0  0  0  0  0
   -0.3771   -3.5875    0.0000 N   0  0  0  0  0  0  0  0  0  0  0  0
   -0.5339   -5.0793    0.0000 C   0  0  0  0  0  0  0  0  0  0  0  0
    1.1147   -3.4307    0.0000 C   0  0  0  0  0  0  0  0  0  0  0  0
    1.5782   -4.8573    0.0000 C   0  0  0  0  0  0  0  0  0  0  0  0
    2.4138   -2.6807    0.0000 C   0  0  0  0  0  0  0  0  0  0  0  0
    3.4175   -3.7955    0.0000 O   0  0  0  0  0  0  0  0  0  0  0  0
    3.2954   -1.4672    0.0000 C   0  0  0  0  0  0  0  0  0  0  0  0
    4.7726   -1.2067    0.0000 C   0  0  0  0  0  0  0  0  0  0  0  0
    4.0903   -2.7393    0.0000 O   0  0  0  0  0  0  0  0  0  0  0  0
  1  2  1  0
  3  2  1  6
  3  4  1  0
  4  5  1  0
  5  6  2  0
  5  7  1  0
  7  8  1  1
  7  9  1  0
  9 10  1  6
 11 10  1  1
 11 12  1  0
 12 13  1  0
 13 14  1  6
 13 15  1  0
 15 16  1  0
 13 17  1  0
 17 18  1  6
 17 19  1  0
 19 20  3  0
 20 21  1  0
 21 22  1  0
 22 23  1  0
 17 24  1  0
 24 25  1  6
 24 26  1  0
  9 27  1  0
 27 28  1  1
 27 29  1  0
 29 30  1  6
 31 30  1  1
 31 32  1  0
 32 33  1  0
 33 34  1  1
 33 35  1  0
 35 36  1  0
 36 37  1  1
 37 38  1  0
 37 39  1  0
 36 40  1  0
 40 41  1  6
 29 42  1  0
 42 43  1  6
 42 44  1  0
 42 45  1  0
 45 46  1  0
 46 47  1  6
 46 48  1  0
 48 49  1  0
 49 50  1  0
 49 51  1  0
 51 52  1  1
 51 53  1  0
 53 54  1  6
 53 55  1  0
 55 56  1  6
 55 57  1  0
 55  3  1  0
 26 11  1  0
 40 31  1  0
M  END
>  <ChEMBL_IDs>  (524) 
CHEMBL299450

>  <target_organism>  (524) 
None

>  <target_molecule_pref_name>  (524) 
nan

>  <# Known Targets>  (524) 
nan

>  <Known Targets>  (524) 
nan

>  <smiles>  (524) 
CC[C@H]1OC(=O)[C@H](C)[C@@H](O[C@H]2C[C@@](C)(OC)[C@@](O)(C#CCOC)[C@H](C)O2)[C@H](C)[C@@H](O[C@@H]2O[C@H](C)C[C@H](N(C)C)[C@H]2O)[C@](C)(O)C[C@@H](C)CN(C)[C@H](C)[C@@H](O)[C@]1(C)O

$$$$

     RDKit          2D

 58 60  0  0  0  0  0  0  0  0999 V2000
    1.3426  -13.6230    0.0000 C   0  0  0  0  0  0  0  0  0  0  0  0
    2.5820  -12.7780    0.0000 C   0  0  0  0  0  0  0  0  0  0  0  0
    2.4699  -11.2822    0.0000 C   0  0  0  0  0  0  0  0  0  0  0  0
    3.7093  -10.4372    0.0000 N   0  0  0  0  0  0  0  0  0  0  0  0
    3.5972   -8.9414    0.0000 C   0  0  0  0  0  0  0  0  0  0  0  0
    2.2457   -8.2906    0.0000 O   0  0  0  0  0  0  0  0  0  0  0  0
    4.8365   -8.0964    0.0000 O   0  0  0  0  0  0  0  0  0  0  0  0
    4.7244   -6.6006    0.0000 C   0  0  0  0  0  0  0  0  0  0  0  0
    3.3730   -5.9498    0.0000 C   0  0  0  0  0  0  0  0  0  0  0  0
    2.1336   -6.7948    0.0000 C   0  0  0  0  0  0  0  0  0  0  0  0
    3.2609   -4.4540    0.0000 O   0  0  0  0  0  0  0  0  0  0  0  0
    4.5002   -3.6090    0.0000 C   0  0  0  0  0  0  0  0  0  0  0  0
    4.3881   -2.1132    0.0000 O   0  0  0  0  0  0  0  0  0  0  0  0
    3.0367   -1.4624    0.0000 C   0  0  0  0  0  0  0  0  0  0  0  0
    3.3705    0.0000    0.0000 C   0  0  0  0  0  0  0  0  0  0  0  0
    4.6804   -0.3267    0.0000 C   0  0  0  0  0  0  0  0  0  0  0  0
    3.0367    1.4624    0.0000 C   0  0  0  0  0  0  0  0  0  0  0  0
    4.3881    2.1132    0.0000 O   0  0  0  0  0  0  0  0  0  0  0  0
    5.6275    1.2682    0.0000 C   0  0  0  0  0  0  0  0  0  0  0  0
    5.5154   -0.2276    0.0000 O   0  0  0  0  0  0  0  0  0  0  0  0
    6.7548   -1.0725    0.0000 C   0  0  0  0  0  0  0  0  0  0  0  0
    6.6427   -2.5684    0.0000 C   0  0  0  0  0  0  0  0  0  0  0  0
    8.1062   -0.4217    0.0000 C   0  0  0  0  0  0  0  0  0  0  0  0
    8.2183    1.0741    0.0000 C   0  0  0  0  0  0  0  0  0  0  0  0
    9.5698    1.7249    0.0000 N   0  0  0  0  0  0  0  0  0  0  0  0
   10.8091    0.8799    0.0000 C   0  0  0  0  0  0  0  0  0  0  0  0
    9.6819    3.2207    0.0000 C   0  0  0  0  0  0  0  0  0  0  0  0
    6.9790    1.9191    0.0000 C   0  0  0  0  0  0  0  0  0  0  0  0
    7.0910    3.4149    0.0000 O   0  0  0  0  0  0  0  0  0  0  0  0
    2.1015    2.6351    0.0000 C   0  0  0  0  0  0  0  0  0  0  0  0
    2.2135    4.1309    0.0000 C   0  0  0  0  0  0  0  0  0  0  0  0
    3.5348    3.0773    0.0000 O   0  0  0  0  0  0  0  0  0  0  0  0
    3.8686    4.5397    0.0000 C   0  0  0  0  0  0  0  0  0  0  0  0
    0.7500    3.2860    0.0000 C   0  0  0  0  0  0  0  0  0  0  0  0
   -0.7500    3.2860    0.0000 C   0  0  0  0  0  0  0  0  0  0  0  0
   -1.0838    4.7484    0.0000 C   0  0  0  0  0  0  0  0  0  0  0  0
   -2.1015    2.6351    0.0000 C   0  0  0  0  0  0  0  0  0  0  0  0
   -3.0367    3.8079    0.0000 O   0  0  0  0  0  0  0  0  0  0  0  0
   -3.0367    1.4624    0.0000 C   0  0  0  0  0  0  0  0  0  0  0  0
   -4.3881    2.1132    0.0000 C   0  0  0  0  0  0  0  0  0  0  0  0
   -3.3705    0.0000    0.0000 C   0  0  0  0  0  0  0  0  0  0  0  0
   -4.8705    0.0000    0.0000 O   0  0  0  0  0  0  0  0  0  0  0  0
   -3.0367   -1.4624    0.0000 C   0  0  0  0  0  0  0  0  0  0  0  0
   -3.7867   -2.7614    0.0000 C   0  0  0  0  0  0  0  0  0  0  0  0
   -4.5199   -1.2388    0.0000 O   0  0  0  0  0  0  0  0  0  0  0  0
   -2.1015   -2.6351    0.0000 C   0  0  0  0  0  0  0  0  0  0  0  0
   -3.0367   -3.8079    0.0000 C   0  0  0  0  0  0  0  0  0  0  0  0
   -4.5199   -3.5843    0.0000 C   0  0  0  0  0  0  0  0  0  0  0  0
   -0.7500   -3.2860    0.0000 O   0  0  0  0  0  0  0  0  0  0  0  0
    0.7500   -3.2860    0.0000 C   0  0  0  0  0  0  0  0  0  0  0  0
    1.0838   -4.7484    0.0000 O   0  0  0  0  0  0  0  0  0  0  0  0
    2.1015   -2.6351    0.0000 C   0  0  0  0  0  0  0  0  0  0  0  0
    2.6628   -3.8629    0.0000 C   0  0  0  0  0  0  0  0  0  0  0  0
    5.8517   -4.2598    0.0000 C   0  0  0  0  0  0  0  0  0  0  0  0
    5.9638   -5.7557    0.0000 C   0  0  0  0  0  0  0  0  0  0  0  0
    7.4174   -5.3855    0.0000 C   0  0  0  0  0  0  0  0  0  0  0  0
    6.5807   -7.1229    0.0000 O   0  0  0  0  0  0  0  0  0  0  0  0
    8.0733   -7.2723    0.0000 C   0  0  0  0  0  0  0  0  0  0  0  0
  1  2  1  0
  2  3  1  0
  3  4  1  0
  4  5  1  0
  5  6  2  0
  5  7  1  0
  8  7  1  1
  8  9  1  0
  9 10  1  6
  9 11  1  0
 11 12  1  0
 12 13  1  1
 14 13  1  6
 14 15  1  0
 15 16  1  1
 15 17  1  0
 17 18  1  6
 19 18  1  1
 19 20  1  0
 20 21  1  0
 21 22  1  1
 21 23  1  0
 23 24  1  0
 24 25  1  1
 25 26  1  0
 25 27  1  0
 24 28  1  0
 28 29  1  6
 17 30  1  0
 30 31  1  6
 30 32  1  0
 32 33  1  0
 30 34  1  0
 34 35  1  0
 35 36  1  6
 35 37  1  0
 37 38  2  0
 37 39  1  0
 39 40  1  1
 39 41  1  0
 41 42  1  6
 41 43  1  0
 43 44  1  6
 43 45  1  0
 43 46  1  0
 46 47  1  6
 47 48  1  0
 46 49  1  0
 49 50  1  0
 50 51  2  0
 50 52  1  0
 52 53  1  1
 12 54  1  0
 54 55  1  0
 55 56  1  6
 55 57  1  0
 57 58  1  0
 55  8  1  0
 52 14  1  0
 28 19  1  0
M  END
>  <ChEMBL_IDs>  (525) 
CHEMBL1668162

>  <target_organism>  (525) 
None

>  <target_molecule_pref_name>  (525) 
nan

>  <# Known Targets>  (525) 
nan

>  <Known Targets>  (525) 
nan

>  <smiles>  (525) 
CCCNC(=O)O[C@H]1[C@H](C)O[C@@H](O[C@H]2[C@H](C)[C@@H](O[C@@H]3O[C@H](C)C[C@H](N(C)C)[C@H]3O)[C@](C)(OC)C[C@@H](C)C(=O)[C@H](C)[C@@H](O)[C@](C)(O)[C@@H](CC)OC(=O)[C@@H]2C)C[C@@]1(C)OC

$$$$

     RDKit          2D

 58 60  0  0  0  0  0  0  0  0999 V2000
    9.3705    2.5981    0.0000 C   0  0  0  0  0  0  0  0  0  0  0  0
    7.8705    2.5981    0.0000 C   0  0  0  0  0  0  0  0  0  0  0  0
    7.1205    1.2990    0.0000 C   0  0  0  0  0  0  0  0  0  0  0  0
    5.6205    1.2990    0.0000 O   0  0  0  0  0  0  0  0  0  0  0  0
    4.8705    0.0000    0.0000 N   0  0  0  0  0  0  0  0  0  0  0  0
    3.3705    0.0000    0.0000 C   0  0  0  0  0  0  0  0  0  0  0  0
    3.0367   -1.4624    0.0000 C   0  0  0  0  0  0  0  0  0  0  0  0
    4.3881   -2.1132    0.0000 C   0  0  0  0  0  0  0  0  0  0  0  0
    2.1015   -2.6351    0.0000 C   0  0  0  0  0  0  0  0  0  0  0  0
    3.0367   -3.8079    0.0000 O   0  0  0  0  0  0  0  0  0  0  0  0
    0.7500   -3.2860    0.0000 C   0  0  0  0  0  0  0  0  0  0  0  0
    1.8496   -4.3062    0.0000 C   0  0  0  0  0  0  0  0  0  0  0  0
    0.2020   -4.6823    0.0000 O   0  0  0  0  0  0  0  0  0  0  0  0
   -0.7500   -3.2860    0.0000 C   0  0  0  0  0  0  0  0  0  0  0  0
   -1.0838   -4.7484    0.0000 C   0  0  0  0  0  0  0  0  0  0  0  0
   -2.5171   -5.1905    0.0000 C   0  0  0  0  0  0  0  0  0  0  0  0
   -2.1015   -2.6351    0.0000 O   0  0  0  0  0  0  0  0  0  0  0  0
   -3.0367   -1.4624    0.0000 C   0  0  0  0  0  0  0  0  0  0  0  0
   -4.3881   -2.1132    0.0000 O   0  0  0  0  0  0  0  0  0  0  0  0
   -3.3705    0.0000    0.0000 C   0  0  0  0  0  0  0  0  0  0  0  0
   -4.6804   -0.3267    0.0000 C   0  0  0  0  0  0  0  0  0  0  0  0
   -3.0367    1.4624    0.0000 C   0  0  0  0  0  0  0  0  0  0  0  0
   -4.3881    2.1132    0.0000 O   0  0  0  0  0  0  0  0  0  0  0  0
   -5.6275    1.2682    0.0000 C   0  0  0  0  0  0  0  0  0  0  0  0
   -6.9790    1.9191    0.0000 C   0  0  0  0  0  0  0  0  0  0  0  0
   -8.2183    1.0741    0.0000 C   0  0  0  0  0  0  0  0  0  0  0  0
   -9.6719    0.7039    0.0000 C   0  0  0  0  0  0  0  0  0  0  0  0
   -8.8352    2.4413    0.0000 O   0  0  0  0  0  0  0  0  0  0  0  0
  -10.3278    2.5907    0.0000 C   0  0  0  0  0  0  0  0  0  0  0  0
   -8.1062   -0.4217    0.0000 C   0  0  0  0  0  0  0  0  0  0  0  0
   -9.3456   -1.2667    0.0000 O   0  0  0  0  0  0  0  0  0  0  0  0
   -9.2335   -2.7625    0.0000 C   0  0  0  0  0  0  0  0  0  0  0  0
  -10.4728   -3.6075    0.0000 C   0  0  0  0  0  0  0  0  0  0  0  0
   -7.8820   -3.4133    0.0000 O   0  0  0  0  0  0  0  0  0  0  0  0
   -6.7548   -1.0725    0.0000 C   0  0  0  0  0  0  0  0  0  0  0  0
   -6.6427   -2.5684    0.0000 C   0  0  0  0  0  0  0  0  0  0  0  0
   -5.5154   -0.2276    0.0000 O   0  0  0  0  0  0  0  0  0  0  0  0
   -2.1015    2.6351    0.0000 C   0  0  0  0  0  0  0  0  0  0  0  0
   -3.0367    3.8079    0.0000 C   0  0  0  0  0  0  0  0  0  0  0  0
   -0.7500    3.2860    0.0000 C   0  0  0  0  0  0  0  0  0  0  0  0
   -1.0838    4.7484    0.0000 O   0  0  0  0  0  0  0  0  0  0  0  0
    0.0158    5.7686    0.0000 C   0  0  0  0  0  0  0  0  0  0  0  0
    1.4492    5.3265    0.0000 O   0  0  0  0  0  0  0  0  0  0  0  0
    2.5487    6.3467    0.0000 C   0  0  0  0  0  0  0  0  0  0  0  0
    3.9821    5.9046    0.0000 C   0  0  0  0  0  0  0  0  0  0  0  0
    2.2150    7.8091    0.0000 C   0  0  0  0  0  0  0  0  0  0  0  0
    0.7816    8.2513    0.0000 C   0  0  0  0  0  0  0  0  0  0  0  0
    0.4478    9.7137    0.0000 N   0  0  0  0  0  0  0  0  0  0  0  0
    1.5474   10.7339    0.0000 C   0  0  0  0  0  0  0  0  0  0  0  0
   -0.9855   10.1558    0.0000 C   0  0  0  0  0  0  0  0  0  0  0  0
   -0.3180    7.2310    0.0000 C   0  0  0  0  0  0  0  0  0  0  0  0
   -1.7513    7.6731    0.0000 O   0  0  0  0  0  0  0  0  0  0  0  0
    0.7500    3.2860    0.0000 C   0  0  0  0  0  0  0  0  0  0  0  0
    0.2020    4.6823    0.0000 C   0  0  0  0  0  0  0  0  0  0  0  0
    1.8496    4.3062    0.0000 O   0  0  0  0  0  0  0  0  0  0  0  0
    2.1015    2.6351    0.0000 C   0  0  0  0  0  0  0  0  0  0  0  0
    3.0367    1.4624    0.0000 C   0  0  0  0  0  0  0  0  0  0  0  0
    4.3881    2.1132    0.0000 C   0  0  0  0  0  0  0  0  0  0  0  0
  1  2  1  0
  2  3  1  0
  3  4  1  0
  4  5  1  0
  5  6  2  0
  6  7  1  0
  7  8  1  6
  7  9  1  0
  9 10  1  1
  9 11  1  0
 11 12  1  1
 11 13  1  0
 11 14  1  0
 14 15  1  1
 15 16  1  0
 14 17  1  0
 17 18  1  0
 18 19  2  0
 18 20  1  0
 20 21  1  6
 20 22  1  0
 22 23  1  1
 24 23  1  6
 24 25  1  0
 25 26  1  0
 26 27  1  1
 26 28  1  0
 28 29  1  0
 26 30  1  0
 30 31  1  6
 31 32  1  0
 32 33  1  0
 32 34  2  0
 30 35  1  0
 35 36  1  1
 35 37  1  0
 22 38  1  0
 38 39  1  6
 38 40  1  0
 40 41  1  1
 42 41  1  1
 42 43  1  0
 43 44  1  0
 44 45  1  1
 44 46  1  0
 46 47  1  0
 47 48  1  1
 48 49  1  0
 48 50  1  0
 47 51  1  0
 51 52  1  6
 40 53  1  0
 53 54  1  1
 53 55  1  0
 53 56  1  0
 56 57  1  0
 57 58  1  1
 57  6  1  0
 37 24  1  0
 51 42  1  0
M  END
>  <ChEMBL_IDs>  (526) 
nan

>  <target_organism>  (526) 
nan

>  <target_molecule_pref_name>  (526) 
nan

>  <# Known Targets>  (526) 
nan

>  <Known Targets>  (526) 
nan

>  <smiles>  (526) 
CCCO/N=C1/[C@H](C)[C@@H](O)[C@](C)(O)[C@@H](CC)OC(=O)[C@H](C)[C@@H](O[C@H]2C[C@@](C)(OC)[C@@H](OC(C)=O)[C@H](C)O2)[C@H](C)[C@@H](O[C@@H]2O[C@H](C)C[C@H](N(C)C)[C@H]2O)[C@](C)(O)C[C@H]1C

$$$$

     RDKit          2D

 57 59  0  0  0  0  0  0  0  0999 V2000
    5.8573   -1.2990    0.0000 C   0  0  0  0  0  0  0  0  0  0  0  0
    5.1073    0.0000    0.0000 C   0  0  0  0  0  0  0  0  0  0  0  0
    3.6073    0.0000    0.0000 C   0  0  0  0  0  0  0  0  0  0  0  0
    3.2954    1.4672    0.0000 O   0  0  0  0  0  0  0  0  0  0  0  0
    2.4138    2.6807    0.0000 C   0  0  0  0  0  0  0  0  0  0  0  0
    3.4175    3.7955    0.0000 O   0  0  0  0  0  0  0  0  0  0  0  0
    1.1147    3.4307    0.0000 C   0  0  0  0  0  0  0  0  0  0  0  0
    1.8302    4.5756    0.0000 C   0  0  0  0  0  0  0  0  0  0  0  0
   -0.3771    3.5875    0.0000 C   0  0  0  0  0  0  0  0  0  0  0  0
   -0.5339    5.0793    0.0000 O   0  0  0  0  0  0  0  0  0  0  0  0
    0.6797    5.9610    0.0000 C   0  0  0  0  0  0  0  0  0  0  0  0
    0.5229    7.4528    0.0000 C   0  0  0  0  0  0  0  0  0  0  0  0
    1.7364    8.3345    0.0000 C   0  0  0  0  0  0  0  0  0  0  0  0
    2.5752    9.5780    0.0000 C   0  0  0  0  0  0  0  0  0  0  0  0
    0.6574    9.3764    0.0000 O   0  0  0  0  0  0  0  0  0  0  0  0
    1.0203   10.8319    0.0000 C   0  0  0  0  0  0  0  0  0  0  0  0
    3.1067    7.7244    0.0000 C   0  0  0  0  0  0  0  0  0  0  0  0
    3.4696    9.1798    0.0000 O   0  0  0  0  0  0  0  0  0  0  0  0
    4.6031    7.6197    0.0000 C   0  0  0  0  0  0  0  0  0  0  0  0
    6.0994    7.5151    0.0000 C   0  0  0  0  0  0  0  0  0  0  0  0
    7.5958    7.4105    0.0000 C   0  0  0  0  0  0  0  0  0  0  0  0
    8.4345    8.6540    0.0000 N   0  0  0  0  0  0  0  0  0  0  0  0
    9.9309    8.5494    0.0000 C   0  0  0  0  0  0  0  0  0  0  0  0
    7.7770   10.0022    0.0000 C   0  0  0  0  0  0  0  0  0  0  0  0
    3.2635    6.2326    0.0000 C   0  0  0  0  0  0  0  0  0  0  0  0
    4.6338    5.6225    0.0000 C   0  0  0  0  0  0  0  0  0  0  0  0
    2.0500    5.3509    0.0000 O   0  0  0  0  0  0  0  0  0  0  0  0
   -1.8037    3.1240    0.0000 C   0  0  0  0  0  0  0  0  0  0  0  0
   -2.5537    4.4231    0.0000 C   0  0  0  0  0  0  0  0  0  0  0  0
   -2.9184    2.1203    0.0000 C   0  0  0  0  0  0  0  0  0  0  0  0
   -4.1319    3.0020    0.0000 O   0  0  0  0  0  0  0  0  0  0  0  0
   -5.5022    2.3919    0.0000 C   0  0  0  0  0  0  0  0  0  0  0  0
   -6.7157    3.2736    0.0000 O   0  0  0  0  0  0  0  0  0  0  0  0
   -8.0861    2.6635    0.0000 C   0  0  0  0  0  0  0  0  0  0  0  0
   -9.2996    3.5451    0.0000 C   0  0  0  0  0  0  0  0  0  0  0  0
   -8.2428    1.1717    0.0000 C   0  0  0  0  0  0  0  0  0  0  0  0
   -7.0293    0.2900    0.0000 C   0  0  0  0  0  0  0  0  0  0  0  0
   -7.1861   -1.2018    0.0000 N   0  0  0  0  0  0  0  0  0  0  0  0
   -8.5564   -1.8119    0.0000 C   0  0  0  0  0  0  0  0  0  0  0  0
   -5.9726   -2.0835    0.0000 C   0  0  0  0  0  0  0  0  0  0  0  0
   -5.6590    0.9001    0.0000 C   0  0  0  0  0  0  0  0  0  0  0  0
   -5.0760    0.3564    0.0000 O   0  0  0  0  0  0  0  0  0  0  0  0
   -3.5285    0.7500    0.0000 C   0  0  0  0  0  0  0  0  0  0  0  0
   -4.2257    0.3635    0.0000 C   0  0  0  0  0  0  0  0  0  0  0  0
   -4.5705    1.8290    0.0000 O   0  0  0  0  0  0  0  0  0  0  0  0
   -3.5285   -0.7500    0.0000 C   0  0  0  0  0  0  0  0  0  0  0  0
   -2.9184   -2.1203    0.0000 C   0  0  0  0  0  0  0  0  0  0  0  0
   -4.1319   -3.0020    0.0000 C   0  0  0  0  0  0  0  0  0  0  0  0
   -1.8037   -3.1240    0.0000 C   0  0  0  0  0  0  0  0  0  0  0  0
   -0.3771   -3.5875    0.0000 N   0  0  0  0  0  0  0  0  0  0  0  0
    1.1147   -3.4307    0.0000 C   0  0  0  0  0  0  0  0  0  0  0  0
    1.5782   -4.8573    0.0000 C   0  0  0  0  0  0  0  0  0  0  0  0
    2.4138   -2.6807    0.0000 C   0  0  0  0  0  0  0  0  0  0  0  0
    3.4175   -3.7955    0.0000 O   0  0  0  0  0  0  0  0  0  0  0  0
    3.2954   -1.4672    0.0000 C   0  0  0  0  0  0  0  0  0  0  0  0
    4.7726   -1.2067    0.0000 C   0  0  0  0  0  0  0  0  0  0  0  0
    4.0903   -2.7393    0.0000 O   0  0  0  0  0  0  0  0  0  0  0  0
  1  2  1  0
  3  2  1  6
  3  4  1  0
  4  5  1  0
  5  6  2  0
  5  7  1  0
  7  8  1  1
  7  9  1  0
  9 10  1  6
 11 10  1  1
 11 12  1  0
 12 13  1  0
 13 14  1  6
 13 15  1  0
 15 16  1  0
 13 17  1  0
 17 18  1  6
 17 19  1  0
 19 20  3  0
 20 21  1  0
 21 22  1  0
 22 23  1  0
 22 24  1  0
 17 25  1  0
 25 26  1  6
 25 27  1  0
  9 28  1  0
 28 29  1  1
 28 30  1  0
 30 31  1  6
 32 31  1  1
 32 33  1  0
 33 34  1  0
 34 35  1  1
 34 36  1  0
 36 37  1  0
 37 38  1  1
 38 39  1  0
 38 40  1  0
 37 41  1  0
 41 42  1  6
 30 43  1  0
 43 44  1  6
 43 45  1  0
 43 46  1  0
 46 47  1  0
 47 48  1  6
 47 49  1  0
 49 50  1  0
 50 51  1  0
 51 52  1  1
 51 53  1  0
 53 54  1  6
 53 55  1  0
 55 56  1  6
 55 57  1  0
 55  3  1  0
 27 11  1  0
 41 32  1  0
M  END
>  <ChEMBL_IDs>  (527) 
CHEMBL299665

>  <target_organism>  (527) 
None

>  <target_molecule_pref_name>  (527) 
nan

>  <# Known Targets>  (527) 
nan

>  <Known Targets>  (527) 
nan

>  <smiles>  (527) 
CC[C@H]1OC(=O)[C@H](C)[C@@H](O[C@H]2C[C@@](C)(OC)[C@@](O)(C#CCN(C)C)[C@H](C)O2)[C@H](C)[C@@H](O[C@@H]2O[C@H](C)C[C@H](N(C)C)[C@H]2O)[C@](C)(O)C[C@@H](C)CN[C@H](C)[C@@H](O)[C@]1(C)O

$$$$

     RDKit          2D

 58 60  0  0  0  0  0  0  0  0999 V2000
   11.4765   -7.6881    0.0000 C   0  0  0  0  0  0  0  0  0  0  0  0
   11.6333   -6.1963    0.0000 C   0  0  0  0  0  0  0  0  0  0  0  0
   10.4198   -5.3146    0.0000 C   0  0  0  0  0  0  0  0  0  0  0  0
   10.5766   -3.8228    0.0000 N   0  0  0  0  0  0  0  0  0  0  0  0
    9.3631   -2.9412    0.0000 C   0  0  0  0  0  0  0  0  0  0  0  0
    7.9927   -3.5513    0.0000 O   0  0  0  0  0  0  0  0  0  0  0  0
    9.5199   -1.4494    0.0000 O   0  0  0  0  0  0  0  0  0  0  0  0
    8.3063   -0.5677    0.0000 C   0  0  0  0  0  0  0  0  0  0  0  0
    6.9360   -1.1778    0.0000 C   0  0  0  0  0  0  0  0  0  0  0  0
    6.7792   -2.6696    0.0000 C   0  0  0  0  0  0  0  0  0  0  0  0
    5.7225   -0.2961    0.0000 O   0  0  0  0  0  0  0  0  0  0  0  0
    5.8793    1.1956    0.0000 C   0  0  0  0  0  0  0  0  0  0  0  0
    4.6658    2.0773    0.0000 O   0  0  0  0  0  0  0  0  0  0  0  0
    3.2954    1.4672    0.0000 C   0  0  0  0  0  0  0  0  0  0  0  0
    3.6073    0.0000    0.0000 C   0  0  0  0  0  0  0  0  0  0  0  0
    4.9172   -0.3267    0.0000 C   0  0  0  0  0  0  0  0  0  0  0  0
    3.2954   -1.4672    0.0000 C   0  0  0  0  0  0  0  0  0  0  0  0
    4.6658   -2.0773    0.0000 O   0  0  0  0  0  0  0  0  0  0  0  0
    2.4138   -2.6807    0.0000 O   0  0  0  0  0  0  0  0  0  0  0  0
    1.1147   -3.4307    0.0000 C   0  0  0  0  0  0  0  0  0  0  0  0
    1.5782   -4.8573    0.0000 C   0  0  0  0  0  0  0  0  0  0  0  0
    0.5745   -5.9720    0.0000 C   0  0  0  0  0  0  0  0  0  0  0  0
   -0.3771   -3.5875    0.0000 C   0  0  0  0  0  0  0  0  0  0  0  0
    0.3271   -4.9120    0.0000 C   0  0  0  0  0  0  0  0  0  0  0  0
   -1.3412   -4.7366    0.0000 O   0  0  0  0  0  0  0  0  0  0  0  0
   -1.8037   -3.1240    0.0000 C   0  0  0  0  0  0  0  0  0  0  0  0
   -2.5537   -4.4231    0.0000 O   0  0  0  0  0  0  0  0  0  0  0  0
   -2.9184   -2.1203    0.0000 C   0  0  0  0  0  0  0  0  0  0  0  0
   -4.1319   -3.0020    0.0000 C   0  0  0  0  0  0  0  0  0  0  0  0
   -3.5285   -0.7500    0.0000 N   0  0  0  0  0  0  0  0  0  0  0  0
   -4.9957   -1.0619    0.0000 C   0  0  0  0  0  0  0  0  0  0  0  0
   -3.5285    0.7500    0.0000 C   0  0  0  0  0  0  0  0  0  0  0  0
   -2.9184    2.1203    0.0000 C   0  0  0  0  0  0  0  0  0  0  0  0
   -4.1319    3.0020    0.0000 C   0  0  0  0  0  0  0  0  0  0  0  0
   -1.8037    3.1240    0.0000 C   0  0  0  0  0  0  0  0  0  0  0  0
   -0.3771    3.5875    0.0000 C   0  0  0  0  0  0  0  0  0  0  0  0
   -1.3412    4.7366    0.0000 C   0  0  0  0  0  0  0  0  0  0  0  0
    0.3271    4.9120    0.0000 O   0  0  0  0  0  0  0  0  0  0  0  0
    1.1147    3.4307    0.0000 C   0  0  0  0  0  0  0  0  0  0  0  0
    1.5782    4.8573    0.0000 O   0  0  0  0  0  0  0  0  0  0  0  0
    3.0455    5.1692    0.0000 C   0  0  0  0  0  0  0  0  0  0  0  0
    4.0492    4.0545    0.0000 O   0  0  0  0  0  0  0  0  0  0  0  0
    5.5164    4.3663    0.0000 C   0  0  0  0  0  0  0  0  0  0  0  0
    6.5201    3.2516    0.0000 C   0  0  0  0  0  0  0  0  0  0  0  0
    5.9799    5.7929    0.0000 C   0  0  0  0  0  0  0  0  0  0  0  0
    4.9762    6.9077    0.0000 C   0  0  0  0  0  0  0  0  0  0  0  0
    5.4397    8.3342    0.0000 N   0  0  0  0  0  0  0  0  0  0  0  0
    6.9070    8.6461    0.0000 C   0  0  0  0  0  0  0  0  0  0  0  0
    4.4360    9.4490    0.0000 C   0  0  0  0  0  0  0  0  0  0  0  0
    3.5090    6.5958    0.0000 C   0  0  0  0  0  0  0  0  0  0  0  0
    2.5053    7.7105    0.0000 O   0  0  0  0  0  0  0  0  0  0  0  0
    2.4138    2.6807    0.0000 C   0  0  0  0  0  0  0  0  0  0  0  0
    3.5330    3.4356    0.0000 C   0  0  0  0  0  0  0  0  0  0  0  0
    7.2496    1.8058    0.0000 C   0  0  0  0  0  0  0  0  0  0  0  0
    8.4631    0.9241    0.0000 C   0  0  0  0  0  0  0  0  0  0  0  0
    9.1207    2.2723    0.0000 C   0  0  0  0  0  0  0  0  0  0  0  0
    9.9050    0.5106    0.0000 O   0  0  0  0  0  0  0  0  0  0  0  0
   10.9840    1.5526    0.0000 C   0  0  0  0  0  0  0  0  0  0  0  0
  1  2  2  0
  2  3  1  0
  3  4  1  0
  4  5  1  0
  5  6  2  0
  5  7  1  0
  7  8  1  0
  8  9  1  0
  9 10  1  0
  9 11  1  0
 11 12  1  0
 12 13  1  0
 13 14  1  0
 14 15  1  0
 15 16  1  0
 15 17  1  0
 17 18  2  0
 17 19  1  0
 19 20  1  0
 20 21  1  0
 21 22  1  0
 20 23  1  0
 23 24  1  0
 23 25  1  0
 23 26  1  0
 26 27  1  0
 26 28  1  0
 28 29  1  0
 28 30  1  0
 30 31  1  0
 30 32  1  0
 32 33  1  0
 33 34  1  0
 33 35  1  0
 35 36  1  0
 36 37  1  0
 36 38  1  0
 36 39  1  0
 39 40  1  0
 40 41  1  0
 41 42  1  0
 42 43  1  0
 43 44  1  0
 43 45  1  0
 45 46  1  0
 46 47  1  0
 47 48  1  0
 47 49  1  0
 46 50  1  0
 50 51  1  0
 39 52  1  0
 52 53  1  0
 12 54  1  0
 54 55  1  0
 55 56  1  0
 55 57  1  0
 57 58  1  0
 55  8  1  0
 52 14  1  0
 50 41  1  0
M  END
>  <ChEMBL_IDs>  (528) 
nan

>  <target_organism>  (528) 
nan

>  <target_molecule_pref_name>  (528) 
nan

>  <# Known Targets>  (528) 
nan

>  <Known Targets>  (528) 
nan

>  <smiles>  (528) 
C=CCNC(=O)OC1C(C)OC(OC2C(C)C(=O)OC(CC)C(C)(O)C(O)C(C)N(C)CC(C)CC(C)(O)C(OC3OC(C)CC(N(C)C)C3O)C2C)CC1(C)OC

$$$$

     RDKit          2D

 58 60  0  0  0  0  0  0  0  0999 V2000
   11.4765   -7.6881    0.0000 C   0  0  0  0  0  0  0  0  0  0  0  0
   11.6333   -6.1963    0.0000 C   0  0  0  0  0  0  0  0  0  0  0  0
   10.4198   -5.3146    0.0000 C   0  0  0  0  0  0  0  0  0  0  0  0
   10.5766   -3.8228    0.0000 N   0  0  0  0  0  0  0  0  0  0  0  0
    9.3631   -2.9412    0.0000 C   0  0  0  0  0  0  0  0  0  0  0  0
    7.9927   -3.5513    0.0000 O   0  0  0  0  0  0  0  0  0  0  0  0
    9.5199   -1.4494    0.0000 O   0  0  0  0  0  0  0  0  0  0  0  0
    8.3063   -0.5677    0.0000 C   0  0  0  0  0  0  0  0  0  0  0  0
    6.9360   -1.1778    0.0000 C   0  0  0  0  0  0  0  0  0  0  0  0
    6.7792   -2.6696    0.0000 C   0  0  0  0  0  0  0  0  0  0  0  0
    5.7225   -0.2961    0.0000 O   0  0  0  0  0  0  0  0  0  0  0  0
    5.8793    1.1956    0.0000 C   0  0  0  0  0  0  0  0  0  0  0  0
    4.6658    2.0773    0.0000 O   0  0  0  0  0  0  0  0  0  0  0  0
    3.2954    1.4672    0.0000 C   0  0  0  0  0  0  0  0  0  0  0  0
    3.6073    0.0000    0.0000 C   0  0  0  0  0  0  0  0  0  0  0  0
    4.9172   -0.3267    0.0000 C   0  0  0  0  0  0  0  0  0  0  0  0
    3.2954   -1.4672    0.0000 C   0  0  0  0  0  0  0  0  0  0  0  0
    4.6658   -2.0773    0.0000 O   0  0  0  0  0  0  0  0  0  0  0  0
    2.4138   -2.6807    0.0000 O   0  0  0  0  0  0  0  0  0  0  0  0
    1.1147   -3.4307    0.0000 C   0  0  0  0  0  0  0  0  0  0  0  0
    1.5782   -4.8573    0.0000 C   0  0  0  0  0  0  0  0  0  0  0  0
    0.5745   -5.9720    0.0000 C   0  0  0  0  0  0  0  0  0  0  0  0
   -0.3771   -3.5875    0.0000 C   0  0  0  0  0  0  0  0  0  0  0  0
    0.3271   -4.9120    0.0000 C   0  0  0  0  0  0  0  0  0  0  0  0
   -1.3412   -4.7366    0.0000 O   0  0  0  0  0  0  0  0  0  0  0  0
   -1.8037   -3.1240    0.0000 C   0  0  0  0  0  0  0  0  0  0  0  0
   -2.5537   -4.4231    0.0000 O   0  0  0  0  0  0  0  0  0  0  0  0
   -2.9184   -2.1203    0.0000 C   0  0  0  0  0  0  0  0  0  0  0  0
   -4.1319   -3.0020    0.0000 C   0  0  0  0  0  0  0  0  0  0  0  0
   -3.5285   -0.7500    0.0000 N   0  0  0  0  0  0  0  0  0  0  0  0
   -4.9957   -1.0619    0.0000 C   0  0  0  0  0  0  0  0  0  0  0  0
   -3.5285    0.7500    0.0000 C   0  0  0  0  0  0  0  0  0  0  0  0
   -2.9184    2.1203    0.0000 C   0  0  0  0  0  0  0  0  0  0  0  0
   -4.1319    3.0020    0.0000 C   0  0  0  0  0  0  0  0  0  0  0  0
   -1.8037    3.1240    0.0000 C   0  0  0  0  0  0  0  0  0  0  0  0
   -0.3771    3.5875    0.0000 C   0  0  0  0  0  0  0  0  0  0  0  0
   -1.3412    4.7366    0.0000 C   0  0  0  0  0  0  0  0  0  0  0  0
    0.3271    4.9120    0.0000 O   0  0  0  0  0  0  0  0  0  0  0  0
    1.1147    3.4307    0.0000 C   0  0  0  0  0  0  0  0  0  0  0  0
    1.5782    4.8573    0.0000 O   0  0  0  0  0  0  0  0  0  0  0  0
    3.0455    5.1692    0.0000 C   0  0  0  0  0  0  0  0  0  0  0  0
    4.0492    4.0545    0.0000 O   0  0  0  0  0  0  0  0  0  0  0  0
    5.5164    4.3663    0.0000 C   0  0  0  0  0  0  0  0  0  0  0  0
    6.5201    3.2516    0.0000 C   0  0  0  0  0  0  0  0  0  0  0  0
    5.9799    5.7929    0.0000 C   0  0  0  0  0  0  0  0  0  0  0  0
    4.9762    6.9077    0.0000 C   0  0  0  0  0  0  0  0  0  0  0  0
    5.4397    8.3342    0.0000 N   0  0  0  0  0  0  0  0  0  0  0  0
    6.9070    8.6461    0.0000 C   0  0  0  0  0  0  0  0  0  0  0  0
    4.4360    9.4490    0.0000 C   0  0  0  0  0  0  0  0  0  0  0  0
    3.5090    6.5958    0.0000 C   0  0  0  0  0  0  0  0  0  0  0  0
    2.5053    7.7105    0.0000 O   0  0  0  0  0  0  0  0  0  0  0  0
    2.4138    2.6807    0.0000 C   0  0  0  0  0  0  0  0  0  0  0  0
    3.5330    3.4356    0.0000 C   0  0  0  0  0  0  0  0  0  0  0  0
    7.2496    1.8058    0.0000 C   0  0  0  0  0  0  0  0  0  0  0  0
    8.4631    0.9241    0.0000 C   0  0  0  0  0  0  0  0  0  0  0  0
    9.1207    2.2723    0.0000 C   0  0  0  0  0  0  0  0  0  0  0  0
    9.9050    0.5106    0.0000 O   0  0  0  0  0  0  0  0  0  0  0  0
   10.9840    1.5526    0.0000 C   0  0  0  0  0  0  0  0  0  0  0  0
  1  2  1  0
  2  3  1  0
  3  4  1  0
  4  5  1  0
  5  6  2  0
  5  7  1  0
  7  8  1  0
  8  9  1  0
  9 10  1  0
  9 11  1  0
 11 12  1  0
 12 13  1  0
 13 14  1  0
 14 15  1  0
 15 16  1  0
 15 17  1  0
 17 18  2  0
 17 19  1  0
 19 20  1  0
 20 21  1  0
 21 22  1  0
 20 23  1  0
 23 24  1  0
 23 25  1  0
 23 26  1  0
 26 27  1  0
 26 28  1  0
 28 29  1  0
 28 30  1  0
 30 31  1  0
 30 32  1  0
 32 33  1  0
 33 34  1  0
 33 35  1  0
 35 36  1  0
 36 37  1  0
 36 38  1  0
 36 39  1  0
 39 40  1  0
 40 41  1  0
 41 42  1  0
 42 43  1  0
 43 44  1  0
 43 45  1  0
 45 46  1  0
 46 47  1  0
 47 48  1  0
 47 49  1  0
 46 50  1  0
 50 51  1  0
 39 52  1  0
 52 53  1  0
 12 54  1  0
 54 55  1  0
 55 56  1  0
 55 57  1  0
 57 58  1  0
 55  8  1  0
 52 14  1  0
 50 41  1  0
M  END
>  <ChEMBL_IDs>  (529) 
nan

>  <target_organism>  (529) 
nan

>  <target_molecule_pref_name>  (529) 
nan

>  <# Known Targets>  (529) 
nan

>  <Known Targets>  (529) 
nan

>  <smiles>  (529) 
CCCNC(=O)OC1C(C)OC(OC2C(C)C(=O)OC(CC)C(C)(O)C(O)C(C)N(C)CC(C)CC(C)(O)C(OC3OC(C)CC(N(C)C)C3O)C2C)CC1(C)OC

$$$$

     RDKit          2D

 58 60  0  0  0  0  0  0  0  0999 V2000
    5.8573   -1.2990    0.0000 C   0  0  0  0  0  0  0  0  0  0  0  0
    5.1073    0.0000    0.0000 C   0  0  0  0  0  0  0  0  0  0  0  0
    3.6073    0.0000    0.0000 C   0  0  0  0  0  0  0  0  0  0  0  0
    3.2954    1.4672    0.0000 O   0  0  0  0  0  0  0  0  0  0  0  0
    2.4138    2.6807    0.0000 C   0  0  0  0  0  0  0  0  0  0  0  0
    3.4175    3.7955    0.0000 O   0  0  0  0  0  0  0  0  0  0  0  0
    1.1147    3.4307    0.0000 C   0  0  0  0  0  0  0  0  0  0  0  0
    1.8302    4.5756    0.0000 C   0  0  0  0  0  0  0  0  0  0  0  0
   -0.3771    3.5875    0.0000 C   0  0  0  0  0  0  0  0  0  0  0  0
   -0.5339    5.0793    0.0000 O   0  0  0  0  0  0  0  0  0  0  0  0
    0.6797    5.9610    0.0000 C   0  0  0  0  0  0  0  0  0  0  0  0
    0.5229    7.4528    0.0000 C   0  0  0  0  0  0  0  0  0  0  0  0
    1.7364    8.3345    0.0000 C   0  0  0  0  0  0  0  0  0  0  0  0
    2.5752    9.5780    0.0000 C   0  0  0  0  0  0  0  0  0  0  0  0
    0.6574    9.3764    0.0000 O   0  0  0  0  0  0  0  0  0  0  0  0
   -0.7845    8.9630    0.0000 C   0  0  0  0  0  0  0  0  0  0  0  0
    3.1067    7.7244    0.0000 C   0  0  0  0  0  0  0  0  0  0  0  0
    4.3202    8.6060    0.0000 O   0  0  0  0  0  0  0  0  0  0  0  0
    5.6906    7.9959    0.0000 C   0  0  0  0  0  0  0  0  0  0  0  0
    5.8474    6.5041    0.0000 O   0  0  0  0  0  0  0  0  0  0  0  0
    6.9041    8.8776    0.0000 N   0  0  0  0  0  0  0  0  0  0  0  0
    8.2744    8.2675    0.0000 C   0  0  0  0  0  0  0  0  0  0  0  0
    9.4879    9.1492    0.0000 C   0  0  0  0  0  0  0  0  0  0  0  0
    8.4312    6.7757    0.0000 C   0  0  0  0  0  0  0  0  0  0  0  0
    3.2635    6.2326    0.0000 C   0  0  0  0  0  0  0  0  0  0  0  0
    4.6338    5.6225    0.0000 C   0  0  0  0  0  0  0  0  0  0  0  0
    2.0500    5.3509    0.0000 O   0  0  0  0  0  0  0  0  0  0  0  0
   -1.8037    3.1240    0.0000 C   0  0  0  0  0  0  0  0  0  0  0  0
   -2.5537    4.4231    0.0000 C   0  0  0  0  0  0  0  0  0  0  0  0
   -2.9184    2.1203    0.0000 C   0  0  0  0  0  0  0  0  0  0  0  0
   -4.1319    3.0020    0.0000 O   0  0  0  0  0  0  0  0  0  0  0  0
   -5.5022    2.3919    0.0000 C   0  0  0  0  0  0  0  0  0  0  0  0
   -6.7157    3.2736    0.0000 O   0  0  0  0  0  0  0  0  0  0  0  0
   -8.0861    2.6635    0.0000 C   0  0  0  0  0  0  0  0  0  0  0  0
   -9.2996    3.5451    0.0000 C   0  0  0  0  0  0  0  0  0  0  0  0
   -8.2428    1.1717    0.0000 C   0  0  0  0  0  0  0  0  0  0  0  0
   -7.0293    0.2900    0.0000 C   0  0  0  0  0  0  0  0  0  0  0  0
   -7.1861   -1.2018    0.0000 N   0  0  0  0  0  0  0  0  0  0  0  0
   -8.5564   -1.8119    0.0000 C   0  0  0  0  0  0  0  0  0  0  0  0
   -5.9726   -2.0835    0.0000 C   0  0  0  0  0  0  0  0  0  0  0  0
   -5.6590    0.9001    0.0000 C   0  0  0  0  0  0  0  0  0  0  0  0
   -5.0760    0.3564    0.0000 O   0  0  0  0  0  0  0  0  0  0  0  0
   -3.5285    0.7500    0.0000 C   0  0  0  0  0  0  0  0  0  0  0  0
   -4.2257    0.3635    0.0000 C   0  0  0  0  0  0  0  0  0  0  0  0
   -4.5705    1.8290    0.0000 O   0  0  0  0  0  0  0  0  0  0  0  0
   -3.5285   -0.7500    0.0000 C   0  0  0  0  0  0  0  0  0  0  0  0
   -2.9184   -2.1203    0.0000 C   0  0  0  0  0  0  0  0  0  0  0  0
   -4.1319   -3.0020    0.0000 C   0  0  0  0  0  0  0  0  0  0  0  0
   -1.8037   -3.1240    0.0000 C   0  0  0  0  0  0  0  0  0  0  0  0
   -0.3771   -3.5875    0.0000 N   0  0  0  0  0  0  0  0  0  0  0  0
   -0.5339   -5.0793    0.0000 C   0  0  0  0  0  0  0  0  0  0  0  0
    1.1147   -3.4307    0.0000 C   0  0  0  0  0  0  0  0  0  0  0  0
    1.5782   -4.8573    0.0000 C   0  0  0  0  0  0  0  0  0  0  0  0
    2.4138   -2.6807    0.0000 C   0  0  0  0  0  0  0  0  0  0  0  0
    3.4175   -3.7955    0.0000 O   0  0  0  0  0  0  0  0  0  0  0  0
    3.2954   -1.4672    0.0000 C   0  0  0  0  0  0  0  0  0  0  0  0
    4.7726   -1.2067    0.0000 C   0  0  0  0  0  0  0  0  0  0  0  0
    4.0903   -2.7393    0.0000 O   0  0  0  0  0  0  0  0  0  0  0  0
  1  2  1  0
  2  3  1  0
  3  4  1  0
  4  5  1  0
  5  6  2  0
  5  7  1  0
  7  8  1  0
  7  9  1  0
  9 10  1  0
 10 11  1  0
 11 12  1  0
 12 13  1  0
 13 14  1  0
 13 15  1  0
 15 16  1  0
 13 17  1  0
 17 18  1  0
 18 19  1  0
 19 20  2  0
 19 21  1  0
 21 22  1  0
 22 23  1  0
 22 24  1  0
 17 25  1  0
 25 26  1  0
 25 27  1  0
  9 28  1  0
 28 29  1  0
 28 30  1  0
 30 31  1  0
 31 32  1  0
 32 33  1  0
 33 34  1  0
 34 35  1  0
 34 36  1  0
 36 37  1  0
 37 38  1  0
 38 39  1  0
 38 40  1  0
 37 41  1  0
 41 42  1  0
 30 43  1  0
 43 44  1  0
 43 45  1  0
 43 46  1  0
 46 47  1  0
 47 48  1  0
 47 49  1  0
 49 50  1  0
 50 51  1  0
 50 52  1  0
 52 53  1  0
 52 54  1  0
 54 55  1  0
 54 56  1  0
 56 57  1  0
 56 58  1  0
 56  3  1  0
 27 11  1  0
 41 32  1  0
M  END
>  <ChEMBL_IDs>  (530) 
nan

>  <target_organism>  (530) 
nan

>  <target_molecule_pref_name>  (530) 
nan

>  <# Known Targets>  (530) 
nan

>  <Known Targets>  (530) 
nan

>  <smiles>  (530) 
CCC1OC(=O)C(C)C(OC2CC(C)(OC)C(OC(=O)NC(C)C)C(C)O2)C(C)C(OC2OC(C)CC(N(C)C)C2O)C(C)(O)CC(C)CN(C)C(C)C(O)C1(C)O

$$$$

     RDKit          2D

 59 61  0  0  0  0  0  0  0  0999 V2000
    5.6205   -1.2990    0.0000 C   0  0  0  0  0  0  0  0  0  0  0  0
    4.8705    0.0000    0.0000 C   0  0  0  0  0  0  0  0  0  0  0  0
    3.3705    0.0000    0.0000 C   0  0  0  0  0  0  0  0  0  0  0  0
    3.0367   -1.4624    0.0000 O   0  0  0  0  0  0  0  0  0  0  0  0
    2.1015   -2.6351    0.0000 C   0  0  0  0  0  0  0  0  0  0  0  0
    3.0367   -3.8079    0.0000 O   0  0  0  0  0  0  0  0  0  0  0  0
    0.7500   -3.2860    0.0000 C   0  0  0  0  0  0  0  0  0  0  0  0
    1.3600   -4.4903    0.0000 C   0  0  0  0  0  0  0  0  0  0  0  0
   -0.7500   -3.2860    0.0000 C   0  0  0  0  0  0  0  0  0  0  0  0
   -1.0838   -4.7484    0.0000 O   0  0  0  0  0  0  0  0  0  0  0  0
    0.0158   -5.7686    0.0000 C   0  0  0  0  0  0  0  0  0  0  0  0
   -0.3180   -7.2310    0.0000 C   0  0  0  0  0  0  0  0  0  0  0  0
    0.7816   -8.2513    0.0000 C   0  0  0  0  0  0  0  0  0  0  0  0
    1.4659   -9.5861    0.0000 C   0  0  0  0  0  0  0  0  0  0  0  0
   -0.4141   -9.1570    0.0000 O   0  0  0  0  0  0  0  0  0  0  0  0
   -0.2276  -10.6453    0.0000 C   0  0  0  0  0  0  0  0  0  0  0  0
    2.2150   -7.8091    0.0000 C   0  0  0  0  0  0  0  0  0  0  0  0
    3.3145   -8.8294    0.0000 O   0  0  0  0  0  0  0  0  0  0  0  0
    2.5487   -6.3467    0.0000 C   0  0  0  0  0  0  0  0  0  0  0  0
    3.9821   -5.9046    0.0000 C   0  0  0  0  0  0  0  0  0  0  0  0
    1.4492   -5.3265    0.0000 O   0  0  0  0  0  0  0  0  0  0  0  0
   -2.1015   -2.6351    0.0000 C   0  0  0  0  0  0  0  0  0  0  0  0
   -3.0367   -3.8079    0.0000 C   0  0  0  0  0  0  0  0  0  0  0  0
   -3.0367   -1.4624    0.0000 C   0  0  0  0  0  0  0  0  0  0  0  0
   -4.3881   -2.1132    0.0000 O   0  0  0  0  0  0  0  0  0  0  0  0
   -5.6275   -1.2682    0.0000 C   0  0  0  0  0  0  0  0  0  0  0  0
   -5.5154    0.2276    0.0000 O   0  0  0  0  0  0  0  0  0  0  0  0
   -6.7548    1.0725    0.0000 C   0  0  0  0  0  0  0  0  0  0  0  0
   -6.6427    2.5684    0.0000 C   0  0  0  0  0  0  0  0  0  0  0  0
   -8.1062    0.4217    0.0000 C   0  0  0  0  0  0  0  0  0  0  0  0
   -8.2183   -1.0741    0.0000 C   0  0  0  0  0  0  0  0  0  0  0  0
   -9.5698   -1.7249    0.0000 N   0  0  0  0  0  0  0  0  0  0  0  0
  -10.8091   -0.8799    0.0000 C   0  0  0  0  0  0  0  0  0  0  0  0
   -9.6819   -3.2207    0.0000 C   0  0  0  0  0  0  0  0  0  0  0  0
   -8.4425   -4.0657    0.0000 O   0  0  0  0  0  0  0  0  0  0  0  0
  -11.0333   -3.8715    0.0000 C   0  0  0  0  0  0  0  0  0  0  0  0
  -11.1454   -5.3673    0.0000 N   0  0  0  0  0  0  0  0  0  0  0  0
  -12.4969   -6.0182    0.0000 C   0  0  0  0  0  0  0  0  0  0  0  0
  -12.6090   -7.5140    0.0000 C   0  0  0  0  0  0  0  0  0  0  0  0
  -13.9604   -8.1648    0.0000 N   0  0  0  0  0  0  0  0  0  0  0  0
  -14.0725   -9.6606    0.0000 C   0  0  0  0  0  0  0  0  0  0  0  0
  -15.1998   -7.3198    0.0000 C   0  0  0  0  0  0  0  0  0  0  0  0
   -6.9790   -1.9191    0.0000 C   0  0  0  0  0  0  0  0  0  0  0  0
   -7.0910   -3.4149    0.0000 O   0  0  0  0  0  0  0  0  0  0  0  0
   -3.3705    0.0000    0.0000 C   0  0  0  0  0  0  0  0  0  0  0  0
   -4.6098   -0.8450    0.0000 C   0  0  0  0  0  0  0  0  0  0  0  0
   -4.6098    0.8450    0.0000 O   0  0  0  0  0  0  0  0  0  0  0  0
   -3.0367    1.4624    0.0000 C   0  0  0  0  0  0  0  0  0  0  0  0
   -2.1015    2.6351    0.0000 C   0  0  0  0  0  0  0  0  0  0  0  0
   -3.0367    3.8079    0.0000 C   0  0  0  0  0  0  0  0  0  0  0  0
   -0.7500    3.2860    0.0000 C   0  0  0  0  0  0  0  0  0  0  0  0
   -1.0838    4.7484    0.0000 O   0  0  0  0  0  0  0  0  0  0  0  0
    0.7500    3.2860    0.0000 C   0  0  0  0  0  0  0  0  0  0  0  0
    1.0838    4.7484    0.0000 C   0  0  0  0  0  0  0  0  0  0  0  0
    2.1015    2.6351    0.0000 C   0  0  0  0  0  0  0  0  0  0  0  0
    3.0367    3.8079    0.0000 O   0  0  0  0  0  0  0  0  0  0  0  0
    3.0367    1.4624    0.0000 C   0  0  0  0  0  0  0  0  0  0  0  0
    3.7867    2.7614    0.0000 C   0  0  0  0  0  0  0  0  0  0  0  0
    4.5199    1.2388    0.0000 O   0  0  0  0  0  0  0  0  0  0  0  0
  1  2  1  0
  3  2  1  1
  3  4  1  0
  4  5  1  0
  5  6  2  0
  5  7  1  0
  7  8  1  6
  7  9  1  0
  9 10  1  1
 11 10  1  6
 11 12  1  0
 12 13  1  0
 13 14  1  1
 13 15  1  0
 15 16  1  0
 13 17  1  0
 17 18  1  6
 17 19  1  0
 19 20  1  1
 19 21  1  0
  9 22  1  0
 22 23  1  6
 22 24  1  0
 24 25  1  1
 26 25  1  6
 26 27  1  0
 27 28  1  0
 28 29  1  6
 28 30  1  0
 30 31  1  0
 31 32  1  6
 32 33  1  0
 32 34  1  0
 34 35  2  0
 34 36  1  0
 36 37  1  0
 37 38  1  0
 38 39  1  0
 39 40  1  0
 40 41  1  0
 40 42  1  0
 31 43  1  0
 43 44  1  1
 24 45  1  0
 45 46  1  1
 45 47  1  0
 45 48  1  0
 48 49  1  0
 49 50  1  1
 49 51  1  0
 51 52  1  6
 51 53  1  0
 53 54  1  6
 53 55  1  0
 55 56  1  1
 55 57  1  0
 57 58  1  1
 57 59  1  0
 57  3  1  0
 21 11  1  0
 43 26  1  0
M  END
>  <ChEMBL_IDs>  (531) 
CHEMBL221144

>  <target_organism>  (531) 
Plasmodium falciparum

>  <target_molecule_pref_name>  (531) 
nan

>  <# Known Targets>  (531) 
nan

>  <Known Targets>  (531) 
nan

>  <smiles>  (531) 
CC[C@H]1OC(=O)[C@H](C)[C@@H](O[C@H]2C[C@@](C)(OC)[C@@H](O)[C@H](C)O2)[C@H](C)[C@@H](O[C@H]2O[C@@H](C)C[C@@H](N(C)C(=O)CNCCN(C)C)[C@@H]2O)[C@](C)(O)C[C@@H](C)[C@H](O)[C@H](C)[C@@H](O)[C@]1(C)O

$$$$

     RDKit          2D

 56 58  0  0  0  0  0  0  0  0999 V2000
   10.1205   -3.8971    0.0000 C   0  0  0  0  0  0  0  0  0  0  0  0
    9.3705   -2.5981    0.0000 C   0  0  0  0  0  0  0  0  0  0  0  0
    7.8705   -2.5981    0.0000 C   0  0  0  0  0  0  0  0  0  0  0  0
    7.1205   -1.2990    0.0000 C   0  0  0  0  0  0  0  0  0  0  0  0
    5.6205   -1.2990    0.0000 C   0  0  0  0  0  0  0  0  0  0  0  0
    4.8705    0.0000    0.0000 N   0  0  0  0  0  0  0  0  0  0  0  0
    3.3705    0.0000    0.0000 C   0  0  0  0  0  0  0  0  0  0  0  0
    3.0367   -1.4624    0.0000 C   0  0  0  0  0  0  0  0  0  0  0  0
    4.3881   -2.1132    0.0000 C   0  0  0  0  0  0  0  0  0  0  0  0
    2.1015   -2.6351    0.0000 C   0  0  0  0  0  0  0  0  0  0  0  0
    3.0367   -3.8079    0.0000 O   0  0  0  0  0  0  0  0  0  0  0  0
    0.7500   -3.2860    0.0000 C   0  0  0  0  0  0  0  0  0  0  0  0
    1.8496   -4.3062    0.0000 C   0  0  0  0  0  0  0  0  0  0  0  0
    0.2020   -4.6823    0.0000 O   0  0  0  0  0  0  0  0  0  0  0  0
   -0.7500   -3.2860    0.0000 C   0  0  0  0  0  0  0  0  0  0  0  0
   -1.0838   -4.7484    0.0000 C   0  0  0  0  0  0  0  0  0  0  0  0
   -2.5171   -5.1905    0.0000 C   0  0  0  0  0  0  0  0  0  0  0  0
   -2.1015   -2.6351    0.0000 O   0  0  0  0  0  0  0  0  0  0  0  0
   -3.0367   -1.4624    0.0000 C   0  0  0  0  0  0  0  0  0  0  0  0
   -4.3881   -2.1132    0.0000 O   0  0  0  0  0  0  0  0  0  0  0  0
   -3.3705    0.0000    0.0000 C   0  0  0  0  0  0  0  0  0  0  0  0
   -4.6804   -0.3267    0.0000 C   0  0  0  0  0  0  0  0  0  0  0  0
   -3.0367    1.4624    0.0000 C   0  0  0  0  0  0  0  0  0  0  0  0
   -4.3881    2.1132    0.0000 O   0  0  0  0  0  0  0  0  0  0  0  0
   -5.6275    1.2682    0.0000 C   0  0  0  0  0  0  0  0  0  0  0  0
   -6.9790    1.9191    0.0000 C   0  0  0  0  0  0  0  0  0  0  0  0
   -8.2183    1.0741    0.0000 C   0  0  0  0  0  0  0  0  0  0  0  0
   -9.6719    0.7039    0.0000 C   0  0  0  0  0  0  0  0  0  0  0  0
   -8.8352    2.4413    0.0000 O   0  0  0  0  0  0  0  0  0  0  0  0
  -10.3278    2.5907    0.0000 C   0  0  0  0  0  0  0  0  0  0  0  0
   -8.1062   -0.4217    0.0000 C   0  0  0  0  0  0  0  0  0  0  0  0
   -9.3456   -1.2667    0.0000 O   0  0  0  0  0  0  0  0  0  0  0  0
   -6.7548   -1.0725    0.0000 C   0  0  0  0  0  0  0  0  0  0  0  0
   -6.6427   -2.5684    0.0000 C   0  0  0  0  0  0  0  0  0  0  0  0
   -5.5154   -0.2276    0.0000 O   0  0  0  0  0  0  0  0  0  0  0  0
   -2.1015    2.6351    0.0000 C   0  0  0  0  0  0  0  0  0  0  0  0
   -3.0367    3.8079    0.0000 C   0  0  0  0  0  0  0  0  0  0  0  0
   -0.7500    3.2860    0.0000 C   0  0  0  0  0  0  0  0  0  0  0  0
   -1.0838    4.7484    0.0000 O   0  0  0  0  0  0  0  0  0  0  0  0
    0.0158    5.7686    0.0000 C   0  0  0  0  0  0  0  0  0  0  0  0
    1.4492    5.3265    0.0000 O   0  0  0  0  0  0  0  0  0  0  0  0
    2.5487    6.3467    0.0000 C   0  0  0  0  0  0  0  0  0  0  0  0
    3.9821    5.9046    0.0000 C   0  0  0  0  0  0  0  0  0  0  0  0
    2.2150    7.8091    0.0000 C   0  0  0  0  0  0  0  0  0  0  0  0
    0.7816    8.2513    0.0000 C   0  0  0  0  0  0  0  0  0  0  0  0
    0.4478    9.7137    0.0000 N   0  0  0  0  0  0  0  0  0  0  0  0
    1.5474   10.7339    0.0000 C   0  0  0  0  0  0  0  0  0  0  0  0
   -0.9855   10.1558    0.0000 C   0  0  0  0  0  0  0  0  0  0  0  0
   -0.3180    7.2310    0.0000 C   0  0  0  0  0  0  0  0  0  0  0  0
   -1.7513    7.6731    0.0000 O   0  0  0  0  0  0  0  0  0  0  0  0
    0.7500    3.2860    0.0000 C   0  0  0  0  0  0  0  0  0  0  0  0
    0.2020    4.6823    0.0000 C   0  0  0  0  0  0  0  0  0  0  0  0
    1.8496    4.3062    0.0000 O   0  0  0  0  0  0  0  0  0  0  0  0
    2.1015    2.6351    0.0000 C   0  0  0  0  0  0  0  0  0  0  0  0
    3.0367    1.4624    0.0000 C   0  0  0  0  0  0  0  0  0  0  0  0
    4.3881    2.1132    0.0000 C   0  0  0  0  0  0  0  0  0  0  0  0
  1  2  1  0
  2  3  1  0
  3  4  1  0
  4  5  1  0
  5  6  1  0
  7  6  1  6
  7  8  1  0
  8  9  1  6
  8 10  1  0
 10 11  1  1
 10 12  1  0
 12 13  1  1
 12 14  1  0
 12 15  1  0
 15 16  1  1
 16 17  1  0
 15 18  1  0
 18 19  1  0
 19 20  2  0
 19 21  1  0
 21 22  1  6
 21 23  1  0
 23 24  1  1
 24 25  1  0
 25 26  1  0
 26 27  1  0
 27 28  1  0
 27 29  1  0
 29 30  1  0
 27 31  1  0
 31 32  1  0
 31 33  1  0
 33 34  1  0
 33 35  1  0
 23 36  1  0
 36 37  1  6
 36 38  1  0
 38 39  1  1
 39 40  1  0
 40 41  1  0
 41 42  1  0
 42 43  1  0
 42 44  1  0
 44 45  1  0
 45 46  1  0
 46 47  1  0
 46 48  1  0
 45 49  1  0
 49 50  1  0
 38 51  1  0
 51 52  1  1
 51 53  1  0
 51 54  1  0
 54 55  1  0
 55 56  1  1
 55  7  1  0
 35 25  1  0
 49 40  1  0
M  END
>  <ChEMBL_IDs>  (532) 
CHEMBL431055

>  <target_organism>  (532) 
Rattus norvegicus

>  <target_molecule_pref_name>  (532) 
nan

>  <# Known Targets>  (532) 
nan

>  <Known Targets>  (532) 
nan

>  <smiles>  (532) 
CCCCCN[C@@H]1[C@H](C)[C@@H](O)[C@](C)(O)[C@@H](CC)OC(=O)[C@H](C)[C@@H](OC2CC(C)(OC)C(O)C(C)O2)[C@H](C)[C@@H](OC2OC(C)CC(N(C)C)C2O)[C@](C)(O)C[C@H]1C

$$$$

     RDKit          2D

 56 58  0  0  0  0  0  0  0  0999 V2000
    5.6205   -1.2990    0.0000 C   0  0  0  0  0  0  0  0  0  0  0  0
    4.8705    0.0000    0.0000 C   0  0  0  0  0  0  0  0  0  0  0  0
    3.3705    0.0000    0.0000 C   0  0  0  0  0  0  0  0  0  0  0  0
    3.0367   -1.4624    0.0000 O   0  0  0  0  0  0  0  0  0  0  0  0
    2.1015   -2.6351    0.0000 C   0  0  0  0  0  0  0  0  0  0  0  0
    3.0367   -3.8079    0.0000 O   0  0  0  0  0  0  0  0  0  0  0  0
    0.7500   -3.2860    0.0000 C   0  0  0  0  0  0  0  0  0  0  0  0
    1.3600   -4.4903    0.0000 C   0  0  0  0  0  0  0  0  0  0  0  0
   -0.7500   -3.2860    0.0000 C   0  0  0  0  0  0  0  0  0  0  0  0
   -1.0838   -4.7484    0.0000 O   0  0  0  0  0  0  0  0  0  0  0  0
    0.0158   -5.7686    0.0000 C   0  0  0  0  0  0  0  0  0  0  0  0
   -0.3180   -7.2310    0.0000 C   0  0  0  0  0  0  0  0  0  0  0  0
    0.7816   -8.2513    0.0000 C   0  0  0  0  0  0  0  0  0  0  0  0
    1.4659   -9.5861    0.0000 C   0  0  0  0  0  0  0  0  0  0  0  0
   -0.4141   -9.1570    0.0000 O   0  0  0  0  0  0  0  0  0  0  0  0
   -0.2276  -10.6453    0.0000 C   0  0  0  0  0  0  0  0  0  0  0  0
    2.2150   -7.8091    0.0000 C   0  0  0  0  0  0  0  0  0  0  0  0
    3.3145   -8.8294    0.0000 O   0  0  0  0  0  0  0  0  0  0  0  0
    2.5487   -6.3467    0.0000 C   0  0  0  0  0  0  0  0  0  0  0  0
    3.9821   -5.9046    0.0000 C   0  0  0  0  0  0  0  0  0  0  0  0
    1.4492   -5.3265    0.0000 O   0  0  0  0  0  0  0  0  0  0  0  0
   -2.1015   -2.6351    0.0000 C   0  0  0  0  0  0  0  0  0  0  0  0
   -3.0367   -3.8079    0.0000 C   0  0  0  0  0  0  0  0  0  0  0  0
   -3.0367   -1.4624    0.0000 C   0  0  0  0  0  0  0  0  0  0  0  0
   -4.3881   -2.1132    0.0000 O   0  0  0  0  0  0  0  0  0  0  0  0
   -5.6275   -1.2682    0.0000 C   0  0  0  0  0  0  0  0  0  0  0  0
   -5.5154    0.2276    0.0000 O   0  0  0  0  0  0  0  0  0  0  0  0
   -6.7548    1.0725    0.0000 C   0  0  0  0  0  0  0  0  0  0  0  0
   -6.6427    2.5684    0.0000 C   0  0  0  0  0  0  0  0  0  0  0  0
   -8.1062    0.4217    0.0000 C   0  0  0  0  0  0  0  0  0  0  0  0
   -8.2183   -1.0741    0.0000 C   0  0  0  0  0  0  0  0  0  0  0  0
   -9.5698   -1.7249    0.0000 N   0  0  0  0  0  0  0  0  0  0  0  0
  -10.8091   -0.8799    0.0000 C   0  0  0  0  0  0  0  0  0  0  0  0
   -9.6819   -3.2207    0.0000 C   0  0  0  0  0  0  0  0  0  0  0  0
   -6.9790   -1.9191    0.0000 C   0  0  0  0  0  0  0  0  0  0  0  0
   -7.0910   -3.4149    0.0000 O   0  0  0  0  0  0  0  0  0  0  0  0
   -3.3705    0.0000    0.0000 C   0  0  0  0  0  0  0  0  0  0  0  0
   -4.6098   -0.8450    0.0000 C   0  0  0  0  0  0  0  0  0  0  0  0
   -4.6098    0.8450    0.0000 O   0  0  0  0  0  0  0  0  0  0  0  0
   -3.0367    1.4624    0.0000 C   0  0  0  0  0  0  0  0  0  0  0  0
   -2.1015    2.6351    0.0000 C   0  0  0  0  0  0  0  0  0  0  0  0
   -3.0367    3.8079    0.0000 C   0  0  0  0  0  0  0  0  0  0  0  0
   -0.7500    3.2860    0.0000 C   0  0  0  0  0  0  0  0  0  0  0  0
   -1.0838    4.7484    0.0000 N   0  0  0  0  0  0  0  0  0  0  0  0
    0.0158    5.7686    0.0000 C   0  0  0  0  0  0  0  0  0  0  0  0
   -0.3180    7.2310    0.0000 C   0  0  0  0  0  0  0  0  0  0  0  0
    0.7816    8.2513    0.0000 C   0  0  0  0  0  0  0  0  0  0  0  0
    0.4478    9.7137    0.0000 C   0  0  0  0  0  0  0  0  0  0  0  0
    2.2150    7.8091    0.0000 C   0  0  0  0  0  0  0  0  0  0  0  0
    0.7500    3.2860    0.0000 C   0  0  0  0  0  0  0  0  0  0  0  0
    1.0838    4.7484    0.0000 C   0  0  0  0  0  0  0  0  0  0  0  0
    2.1015    2.6351    0.0000 C   0  0  0  0  0  0  0  0  0  0  0  0
    3.0367    3.8079    0.0000 O   0  0  0  0  0  0  0  0  0  0  0  0
    3.0367    1.4624    0.0000 C   0  0  0  0  0  0  0  0  0  0  0  0
    3.7867    2.7614    0.0000 C   0  0  0  0  0  0  0  0  0  0  0  0
    4.5199    1.2388    0.0000 O   0  0  0  0  0  0  0  0  0  0  0  0
  1  2  1  0
  3  2  1  1
  3  4  1  0
  4  5  1  0
  5  6  2  0
  5  7  1  0
  7  8  1  6
  7  9  1  0
  9 10  1  1
 10 11  1  0
 11 12  1  0
 12 13  1  0
 13 14  1  0
 13 15  1  0
 15 16  1  0
 13 17  1  0
 17 18  1  0
 17 19  1  0
 19 20  1  0
 19 21  1  0
  9 22  1  0
 22 23  1  6
 22 24  1  0
 24 25  1  1
 25 26  1  0
 26 27  1  0
 27 28  1  0
 28 29  1  0
 28 30  1  0
 30 31  1  0
 31 32  1  0
 32 33  1  0
 32 34  1  0
 31 35  1  0
 35 36  1  0
 24 37  1  0
 37 38  1  1
 37 39  1  0
 37 40  1  0
 40 41  1  0
 41 42  1  1
 41 43  1  0
 43 44  1  6
 44 45  1  0
 45 46  1  0
 46 47  1  0
 47 48  1  0
 47 49  1  0
 43 50  1  0
 50 51  1  6
 50 52  1  0
 52 53  1  1
 52 54  1  0
 54 55  1  1
 54 56  1  0
 54  3  1  0
 21 11  1  0
 35 26  1  0
M  END
>  <ChEMBL_IDs>  (533) 
CHEMBL430850

>  <target_organism>  (533) 
Rattus norvegicus

>  <target_molecule_pref_name>  (533) 
nan

>  <# Known Targets>  (533) 
nan

>  <Known Targets>  (533) 
nan

>  <smiles>  (533) 
CC[C@H]1OC(=O)[C@H](C)[C@@H](OC2CC(C)(OC)C(O)C(C)O2)[C@H](C)[C@@H](OC2OC(C)CC(N(C)C)C2O)[C@](C)(O)C[C@@H](C)[C@H](NCCC(C)C)[C@H](C)[C@@H](O)[C@]1(C)O

$$$$

     RDKit          2D

 56 58  0  0  0  0  0  0  0  0999 V2000
    5.8573   -1.2990    0.0000 C   0  0  0  0  0  0  0  0  0  0  0  0
    5.1073    0.0000    0.0000 C   0  0  0  0  0  0  0  0  0  0  0  0
    3.6073    0.0000    0.0000 C   0  0  0  0  0  0  0  0  0  0  0  0
    3.2954    1.4672    0.0000 O   0  0  0  0  0  0  0  0  0  0  0  0
    2.4138    2.6807    0.0000 C   0  0  0  0  0  0  0  0  0  0  0  0
    3.4175    3.7955    0.0000 O   0  0  0  0  0  0  0  0  0  0  0  0
    1.1147    3.4307    0.0000 C   0  0  0  0  0  0  0  0  0  0  0  0
    1.8302    4.5756    0.0000 C   0  0  0  0  0  0  0  0  0  0  0  0
   -0.3771    3.5875    0.0000 C   0  0  0  0  0  0  0  0  0  0  0  0
   -0.5339    5.0793    0.0000 O   0  0  0  0  0  0  0  0  0  0  0  0
    0.6797    5.9610    0.0000 C   0  0  0  0  0  0  0  0  0  0  0  0
    0.5229    7.4528    0.0000 C   0  0  0  0  0  0  0  0  0  0  0  0
    1.7364    8.3345    0.0000 C   0  0  0  0  0  0  0  0  0  0  0  0
    2.5752    9.5780    0.0000 C   0  0  0  0  0  0  0  0  0  0  0  0
    0.6574    9.3764    0.0000 O   0  0  0  0  0  0  0  0  0  0  0  0
    1.0203   10.8319    0.0000 C   0  0  0  0  0  0  0  0  0  0  0  0
    3.1067    7.7244    0.0000 C   0  0  0  0  0  0  0  0  0  0  0  0
    4.3202    8.6060    0.0000 O   0  0  0  0  0  0  0  0  0  0  0  0
    5.6906    7.9959    0.0000 C   0  0  0  0  0  0  0  0  0  0  0  0
    3.2635    6.2326    0.0000 C   0  0  0  0  0  0  0  0  0  0  0  0
    4.6338    5.6225    0.0000 C   0  0  0  0  0  0  0  0  0  0  0  0
    2.0500    5.3509    0.0000 O   0  0  0  0  0  0  0  0  0  0  0  0
   -1.8037    3.1240    0.0000 C   0  0  0  0  0  0  0  0  0  0  0  0
   -2.5537    4.4231    0.0000 C   0  0  0  0  0  0  0  0  0  0  0  0
   -2.9184    2.1203    0.0000 C   0  0  0  0  0  0  0  0  0  0  0  0
   -4.1319    3.0020    0.0000 O   0  0  0  0  0  0  0  0  0  0  0  0
   -5.5022    2.3919    0.0000 C   0  0  0  0  0  0  0  0  0  0  0  0
   -6.7157    3.2736    0.0000 O   0  0  0  0  0  0  0  0  0  0  0  0
   -8.0861    2.6635    0.0000 C   0  0  0  0  0  0  0  0  0  0  0  0
   -9.2996    3.5451    0.0000 C   0  0  0  0  0  0  0  0  0  0  0  0
   -8.2428    1.1717    0.0000 C   0  0  0  0  0  0  0  0  0  0  0  0
   -7.0293    0.2900    0.0000 C   0  0  0  0  0  0  0  0  0  0  0  0
   -7.1861   -1.2018    0.0000 N   0  0  0  0  0  0  0  0  0  0  0  0
   -8.5564   -1.8119    0.0000 C   0  0  0  0  0  0  0  0  0  0  0  0
   -5.9726   -2.0835    0.0000 C   0  0  0  0  0  0  0  0  0  0  0  0
   -5.6590    0.9001    0.0000 C   0  0  0  0  0  0  0  0  0  0  0  0
   -5.0760    0.3564    0.0000 O   0  0  0  0  0  0  0  0  0  0  0  0
   -3.5285    0.7500    0.0000 C   0  0  0  0  0  0  0  0  0  0  0  0
   -4.2257    0.3635    0.0000 C   0  0  0  0  0  0  0  0  0  0  0  0
   -4.5705    1.8290    0.0000 O   0  0  0  0  0  0  0  0  0  0  0  0
   -5.8948    1.1247    0.0000 C   0  0  0  0  0  0  0  0  0  0  0  0
   -3.5285   -0.7500    0.0000 C   0  0  0  0  0  0  0  0  0  0  0  0
   -2.9184   -2.1203    0.0000 C   0  0  0  0  0  0  0  0  0  0  0  0
   -4.1319   -3.0020    0.0000 C   0  0  0  0  0  0  0  0  0  0  0  0
   -1.8037   -3.1240    0.0000 N   0  0  0  0  0  0  0  0  0  0  0  0
   -2.5537   -4.4231    0.0000 C   0  0  0  0  0  0  0  0  0  0  0  0
   -0.3771   -3.5875    0.0000 C   0  0  0  0  0  0  0  0  0  0  0  0
    1.1147   -3.4307    0.0000 C   0  0  0  0  0  0  0  0  0  0  0  0
    1.5782   -4.8573    0.0000 C   0  0  0  0  0  0  0  0  0  0  0  0
    2.4138   -2.6807    0.0000 C   0  0  0  0  0  0  0  0  0  0  0  0
    3.4175   -3.7955    0.0000 O   0  0  0  0  0  0  0  0  0  0  0  0
    4.8847   -3.4836    0.0000 C   0  0  0  0  0  0  0  0  0  0  0  0
    3.2954   -1.4672    0.0000 C   0  0  0  0  0  0  0  0  0  0  0  0
    4.7726   -1.2067    0.0000 C   0  0  0  0  0  0  0  0  0  0  0  0
    4.0903   -2.7393    0.0000 O   0  0  0  0  0  0  0  0  0  0  0  0
    5.5894   -2.6869    0.0000 C   0  0  0  0  0  0  0  0  0  0  0  0
  1  2  1  0
  3  2  1  6
  3  4  1  0
  4  5  1  0
  5  6  2  0
  5  7  1  0
  7  8  1  1
  7  9  1  0
  9 10  1  6
 11 10  1  1
 11 12  1  0
 12 13  1  0
 13 14  1  6
 13 15  1  0
 15 16  1  0
 13 17  1  0
 17 18  1  1
 18 19  1  0
 17 20  1  0
 20 21  1  1
 20 22  1  0
  9 23  1  0
 23 24  1  1
 23 25  1  0
 25 26  1  6
 27 26  1  1
 27 28  1  0
 28 29  1  0
 29 30  1  1
 29 31  1  0
 31 32  1  0
 32 33  1  6
 33 34  1  0
 33 35  1  0
 32 36  1  0
 36 37  1  6
 25 38  1  0
 38 39  1  6
 38 40  1  0
 40 41  1  0
 38 42  1  0
 42 43  1  0
 43 44  1  6
 43 45  1  0
 45 46  1  0
 45 47  1  0
 47 48  1  0
 48 49  1  1
 48 50  1  0
 50 51  1  6
 51 52  1  0
 50 53  1  0
 53 54  1  6
 53 55  1  0
 55 56  1  0
 53  3  1  0
 22 11  1  0
 36 27  1  0
M  END
>  <ChEMBL_IDs>  (534) 
CHEMBL3038225

>  <target_organism>  (534) 
None

>  <target_molecule_pref_name>  (534) 
nan

>  <# Known Targets>  (534) 
nan

>  <Known Targets>  (534) 
nan

>  <smiles>  (534) 
CC[C@H]1OC(=O)[C@H](C)[C@@H](O[C@H]2C[C@@](C)(OC)[C@@H](OC)[C@@H](C)O2)[C@H](C)[C@@H](O[C@@H]2O[C@H](C)C[C@@H](N(C)C)[C@H]2O)[C@](C)(OC)C[C@@H](C)N(C)C[C@H](C)[C@@H](OC)[C@]1(C)OC

$$$$

     RDKit          2D

 57 59  0  0  0  0  0  0  0  0999 V2000
    5.6205   -1.2990    0.0000 C   0  0  0  0  0  0  0  0  0  0  0  0
    4.8705    0.0000    0.0000 C   0  0  0  0  0  0  0  0  0  0  0  0
    3.3705    0.0000    0.0000 C   0  0  0  0  0  0  0  0  0  0  0  0
    3.0367   -1.4624    0.0000 O   0  0  0  0  0  0  0  0  0  0  0  0
    2.1015   -2.6351    0.0000 C   0  0  0  0  0  0  0  0  0  0  0  0
    3.0367   -3.8079    0.0000 O   0  0  0  0  0  0  0  0  0  0  0  0
    0.7500   -3.2860    0.0000 C   0  0  0  0  0  0  0  0  0  0  0  0
    1.3600   -4.4903    0.0000 C   0  0  0  0  0  0  0  0  0  0  0  0
   -0.7500   -3.2860    0.0000 C   0  0  0  0  0  0  0  0  0  0  0  0
   -1.0838   -4.7484    0.0000 O   0  0  0  0  0  0  0  0  0  0  0  0
    0.0158   -5.7686    0.0000 C   0  0  0  0  0  0  0  0  0  0  0  0
   -0.3180   -7.2310    0.0000 C   0  0  0  0  0  0  0  0  0  0  0  0
    0.7816   -8.2513    0.0000 C   0  0  0  0  0  0  0  0  0  0  0  0
    1.4659   -9.5861    0.0000 C   0  0  0  0  0  0  0  0  0  0  0  0
   -0.4141   -9.1570    0.0000 O   0  0  0  0  0  0  0  0  0  0  0  0
   -0.2276  -10.6453    0.0000 C   0  0  0  0  0  0  0  0  0  0  0  0
    2.2150   -7.8091    0.0000 C   0  0  0  0  0  0  0  0  0  0  0  0
    3.3145   -8.8294    0.0000 O   0  0  0  0  0  0  0  0  0  0  0  0
    2.5487   -6.3467    0.0000 C   0  0  0  0  0  0  0  0  0  0  0  0
    3.9821   -5.9046    0.0000 C   0  0  0  0  0  0  0  0  0  0  0  0
    1.4492   -5.3265    0.0000 O   0  0  0  0  0  0  0  0  0  0  0  0
   -2.1015   -2.6351    0.0000 C   0  0  0  0  0  0  0  0  0  0  0  0
   -3.0367   -3.8079    0.0000 C   0  0  0  0  0  0  0  0  0  0  0  0
   -3.0367   -1.4624    0.0000 C   0  0  0  0  0  0  0  0  0  0  0  0
   -4.3881   -2.1132    0.0000 O   0  0  0  0  0  0  0  0  0  0  0  0
   -5.6275   -1.2682    0.0000 C   0  0  0  0  0  0  0  0  0  0  0  0
   -5.5154    0.2276    0.0000 O   0  0  0  0  0  0  0  0  0  0  0  0
   -6.7548    1.0725    0.0000 C   0  0  0  0  0  0  0  0  0  0  0  0
   -6.6427    2.5684    0.0000 C   0  0  0  0  0  0  0  0  0  0  0  0
   -8.1062    0.4217    0.0000 C   0  0  0  0  0  0  0  0  0  0  0  0
   -8.2183   -1.0741    0.0000 C   0  0  0  0  0  0  0  0  0  0  0  0
   -9.5698   -1.7249    0.0000 N   0  0  0  0  0  0  0  0  0  0  0  0
  -10.8091   -0.8799    0.0000 C   0  0  0  0  0  0  0  0  0  0  0  0
   -9.6819   -3.2207    0.0000 C   0  0  0  0  0  0  0  0  0  0  0  0
   -6.9790   -1.9191    0.0000 C   0  0  0  0  0  0  0  0  0  0  0  0
   -7.0910   -3.4149    0.0000 O   0  0  0  0  0  0  0  0  0  0  0  0
   -3.3705    0.0000    0.0000 C   0  0  0  0  0  0  0  0  0  0  0  0
   -4.6098   -0.8450    0.0000 C   0  0  0  0  0  0  0  0  0  0  0  0
   -4.6098    0.8450    0.0000 O   0  0  0  0  0  0  0  0  0  0  0  0
   -3.0367    1.4624    0.0000 C   0  0  0  0  0  0  0  0  0  0  0  0
   -2.1015    2.6351    0.0000 C   0  0  0  0  0  0  0  0  0  0  0  0
   -3.0367    3.8079    0.0000 C   0  0  0  0  0  0  0  0  0  0  0  0
   -0.7500    3.2860    0.0000 C   0  0  0  0  0  0  0  0  0  0  0  0
   -1.0838    4.7484    0.0000 N   0  0  0  0  0  0  0  0  0  0  0  0
    0.0158    5.7686    0.0000 C   0  0  0  0  0  0  0  0  0  0  0  0
   -0.3180    7.2310    0.0000 C   0  0  0  0  0  0  0  0  0  0  0  0
    0.7816    8.2513    0.0000 C   0  0  0  0  0  0  0  0  0  0  0  0
    0.4478    9.7137    0.0000 C   0  0  0  0  0  0  0  0  0  0  0  0
    1.5474   10.7339    0.0000 C   0  0  0  0  0  0  0  0  0  0  0  0
    1.2136   12.1963    0.0000 O   0  0  0  0  0  0  0  0  0  0  0  0
    0.7500    3.2860    0.0000 C   0  0  0  0  0  0  0  0  0  0  0  0
    1.0838    4.7484    0.0000 C   0  0  0  0  0  0  0  0  0  0  0  0
    2.1015    2.6351    0.0000 C   0  0  0  0  0  0  0  0  0  0  0  0
    3.0367    3.8079    0.0000 O   0  0  0  0  0  0  0  0  0  0  0  0
    3.0367    1.4624    0.0000 C   0  0  0  0  0  0  0  0  0  0  0  0
    3.7867    2.7614    0.0000 C   0  0  0  0  0  0  0  0  0  0  0  0
    4.5199    1.2388    0.0000 O   0  0  0  0  0  0  0  0  0  0  0  0
  1  2  1  0
  3  2  1  1
  3  4  1  0
  4  5  1  0
  5  6  2  0
  5  7  1  0
  7  8  1  6
  7  9  1  0
  9 10  1  1
 10 11  1  0
 11 12  1  0
 12 13  1  0
 13 14  1  0
 13 15  1  0
 15 16  1  0
 13 17  1  0
 17 18  1  0
 17 19  1  0
 19 20  1  0
 19 21  1  0
  9 22  1  0
 22 23  1  6
 22 24  1  0
 24 25  1  1
 25 26  1  0
 26 27  1  0
 27 28  1  0
 28 29  1  0
 28 30  1  0
 30 31  1  0
 31 32  1  0
 32 33  1  0
 32 34  1  0
 31 35  1  0
 35 36  1  0
 24 37  1  0
 37 38  1  1
 37 39  1  0
 37 40  1  0
 40 41  1  0
 41 42  1  1
 41 43  1  0
 43 44  1  6
 44 45  1  0
 45 46  1  0
 46 47  1  0
 47 48  1  0
 48 49  1  0
 49 50  1  0
 43 51  1  0
 51 52  1  6
 51 53  1  0
 53 54  1  1
 53 55  1  0
 55 56  1  1
 55 57  1  0
 55  3  1  0
 21 11  1  0
 35 26  1  0
M  END
>  <ChEMBL_IDs>  (535) 
CHEMBL104802

>  <target_organism>  (535) 
nan

>  <target_molecule_pref_name>  (535) 
nan

>  <# Known Targets>  (535) 
nan

>  <Known Targets>  (535) 
nan

>  <smiles>  (535) 
CC[C@H]1OC(=O)[C@H](C)[C@@H](OC2CC(C)(OC)C(O)C(C)O2)[C@H](C)[C@@H](OC2OC(C)CC(N(C)C)C2O)[C@](C)(O)C[C@@H](C)[C@H](NCCCCCO)[C@H](C)[C@@H](O)[C@]1(C)O

$$$$

     RDKit          2D

 57 59  0  0  0  0  0  0  0  0999 V2000
    5.6205   -1.2990    0.0000 C   0  0  0  0  0  0  0  0  0  0  0  0
    4.8705    0.0000    0.0000 C   0  0  0  0  0  0  0  0  0  0  0  0
    3.3705    0.0000    0.0000 C   0  0  0  0  0  0  0  0  0  0  0  0
    3.0367   -1.4624    0.0000 O   0  0  0  0  0  0  0  0  0  0  0  0
    2.1015   -2.6351    0.0000 C   0  0  0  0  0  0  0  0  0  0  0  0
    3.0367   -3.8079    0.0000 O   0  0  0  0  0  0  0  0  0  0  0  0
    0.7500   -3.2860    0.0000 C   0  0  0  0  0  0  0  0  0  0  0  0
    1.3600   -4.4903    0.0000 C   0  0  0  0  0  0  0  0  0  0  0  0
   -0.7500   -3.2860    0.0000 C   0  0  0  0  0  0  0  0  0  0  0  0
   -1.0838   -4.7484    0.0000 O   0  0  0  0  0  0  0  0  0  0  0  0
    0.0158   -5.7686    0.0000 C   0  0  0  0  0  0  0  0  0  0  0  0
   -0.3180   -7.2310    0.0000 C   0  0  0  0  0  0  0  0  0  0  0  0
    0.7816   -8.2513    0.0000 C   0  0  0  0  0  0  0  0  0  0  0  0
    1.4659   -9.5861    0.0000 C   0  0  0  0  0  0  0  0  0  0  0  0
   -0.4141   -9.1570    0.0000 O   0  0  0  0  0  0  0  0  0  0  0  0
   -0.2276  -10.6453    0.0000 C   0  0  0  0  0  0  0  0  0  0  0  0
    2.2150   -7.8091    0.0000 C   0  0  0  0  0  0  0  0  0  0  0  0
    3.3145   -8.8294    0.0000 O   0  0  0  0  0  0  0  0  0  0  0  0
    2.5487   -6.3467    0.0000 C   0  0  0  0  0  0  0  0  0  0  0  0
    3.9821   -5.9046    0.0000 C   0  0  0  0  0  0  0  0  0  0  0  0
    1.4492   -5.3265    0.0000 O   0  0  0  0  0  0  0  0  0  0  0  0
   -2.1015   -2.6351    0.0000 C   0  0  0  0  0  0  0  0  0  0  0  0
   -3.0367   -3.8079    0.0000 C   0  0  0  0  0  0  0  0  0  0  0  0
   -3.0367   -1.4624    0.0000 C   0  0  0  0  0  0  0  0  0  0  0  0
   -4.3881   -2.1132    0.0000 O   0  0  0  0  0  0  0  0  0  0  0  0
   -5.6275   -1.2682    0.0000 C   0  0  0  0  0  0  0  0  0  0  0  0
   -5.5154    0.2276    0.0000 O   0  0  0  0  0  0  0  0  0  0  0  0
   -6.7548    1.0725    0.0000 C   0  0  0  0  0  0  0  0  0  0  0  0
   -6.6427    2.5684    0.0000 C   0  0  0  0  0  0  0  0  0  0  0  0
   -8.1062    0.4217    0.0000 C   0  0  0  0  0  0  0  0  0  0  0  0
   -8.2183   -1.0741    0.0000 C   0  0  0  0  0  0  0  0  0  0  0  0
   -9.5698   -1.7249    0.0000 N   0  0  0  0  0  0  0  0  0  0  0  0
  -10.8091   -0.8799    0.0000 C   0  0  0  0  0  0  0  0  0  0  0  0
   -9.6819   -3.2207    0.0000 C   0  0  0  0  0  0  0  0  0  0  0  0
   -6.9790   -1.9191    0.0000 C   0  0  0  0  0  0  0  0  0  0  0  0
   -7.0910   -3.4149    0.0000 O   0  0  0  0  0  0  0  0  0  0  0  0
   -3.3705    0.0000    0.0000 C   0  0  0  0  0  0  0  0  0  0  0  0
   -4.6098   -0.8450    0.0000 C   0  0  0  0  0  0  0  0  0  0  0  0
   -4.6098    0.8450    0.0000 O   0  0  0  0  0  0  0  0  0  0  0  0
   -3.0367    1.4624    0.0000 C   0  0  0  0  0  0  0  0  0  0  0  0
   -2.1015    2.6351    0.0000 C   0  0  0  0  0  0  0  0  0  0  0  0
   -3.0367    3.8079    0.0000 C   0  0  0  0  0  0  0  0  0  0  0  0
   -0.7500    3.2860    0.0000 C   0  0  0  0  0  0  0  0  0  0  0  0
   -1.0838    4.7484    0.0000 N   0  0  0  0  0  0  0  0  0  0  0  0
    0.0158    5.7686    0.0000 C   0  0  0  0  0  0  0  0  0  0  0  0
   -0.3180    7.2310    0.0000 C   0  0  0  0  0  0  0  0  0  0  0  0
   -1.7804    6.8972    0.0000 C   0  0  0  0  0  0  0  0  0  0  0  0
    1.1444    7.5648    0.0000 C   0  0  0  0  0  0  0  0  0  0  0  0
   -0.6518    8.6934    0.0000 C   0  0  0  0  0  0  0  0  0  0  0  0
   -2.0851    9.1355    0.0000 O   0  0  0  0  0  0  0  0  0  0  0  0
    0.7500    3.2860    0.0000 C   0  0  0  0  0  0  0  0  0  0  0  0
    1.0838    4.7484    0.0000 C   0  0  0  0  0  0  0  0  0  0  0  0
    2.1015    2.6351    0.0000 C   0  0  0  0  0  0  0  0  0  0  0  0
    3.0367    3.8079    0.0000 O   0  0  0  0  0  0  0  0  0  0  0  0
    3.0367    1.4624    0.0000 C   0  0  0  0  0  0  0  0  0  0  0  0
    3.7867    2.7614    0.0000 C   0  0  0  0  0  0  0  0  0  0  0  0
    4.5199    1.2388    0.0000 O   0  0  0  0  0  0  0  0  0  0  0  0
  1  2  1  0
  3  2  1  1
  3  4  1  0
  4  5  1  0
  5  6  2  0
  5  7  1  0
  7  8  1  6
  7  9  1  0
  9 10  1  1
 10 11  1  0
 11 12  1  0
 12 13  1  0
 13 14  1  0
 13 15  1  0
 15 16  1  0
 13 17  1  0
 17 18  1  0
 17 19  1  0
 19 20  1  0
 19 21  1  0
  9 22  1  0
 22 23  1  6
 22 24  1  0
 24 25  1  1
 25 26  1  0
 26 27  1  0
 27 28  1  0
 28 29  1  0
 28 30  1  0
 30 31  1  0
 31 32  1  0
 32 33  1  0
 32 34  1  0
 31 35  1  0
 35 36  1  0
 24 37  1  0
 37 38  1  1
 37 39  1  0
 37 40  1  0
 40 41  1  0
 41 42  1  1
 41 43  1  0
 43 44  1  6
 44 45  1  0
 45 46  1  0
 46 47  1  0
 46 48  1  0
 46 49  1  0
 49 50  1  0
 43 51  1  0
 51 52  1  6
 51 53  1  0
 53 54  1  1
 53 55  1  0
 55 56  1  1
 55 57  1  0
 55  3  1  0
 21 11  1  0
 35 26  1  0
M  END
>  <ChEMBL_IDs>  (536) 
CHEMBL317880

>  <target_organism>  (536) 
None

>  <target_molecule_pref_name>  (536) 
nan

>  <# Known Targets>  (536) 
nan

>  <Known Targets>  (536) 
nan

>  <smiles>  (536) 
CC[C@H]1OC(=O)[C@H](C)[C@@H](OC2CC(C)(OC)C(O)C(C)O2)[C@H](C)[C@@H](OC2OC(C)CC(N(C)C)C2O)[C@](C)(O)C[C@@H](C)[C@H](NCC(C)(C)CO)[C@H](C)[C@@H](O)[C@]1(C)O

$$$$

     RDKit          2D

 57 59  0  0  0  0  0  0  0  0999 V2000
    5.8573   -1.2990    0.0000 C   0  0  0  0  0  0  0  0  0  0  0  0
    5.1073    0.0000    0.0000 C   0  0  0  0  0  0  0  0  0  0  0  0
    3.6073    0.0000    0.0000 C   0  0  0  0  0  0  0  0  0  0  0  0
    3.2954    1.4672    0.0000 O   0  0  0  0  0  0  0  0  0  0  0  0
    2.4138    2.6807    0.0000 C   0  0  0  0  0  0  0  0  0  0  0  0
    3.4175    3.7955    0.0000 O   0  0  0  0  0  0  0  0  0  0  0  0
    1.1147    3.4307    0.0000 C   0  0  0  0  0  0  0  0  0  0  0  0
    1.8302    4.5756    0.0000 C   0  0  0  0  0  0  0  0  0  0  0  0
   -0.3771    3.5875    0.0000 C   0  0  0  0  0  0  0  0  0  0  0  0
   -0.5339    5.0793    0.0000 O   0  0  0  0  0  0  0  0  0  0  0  0
    0.6797    5.9610    0.0000 C   0  0  0  0  0  0  0  0  0  0  0  0
    0.5229    7.4528    0.0000 C   0  0  0  0  0  0  0  0  0  0  0  0
    1.7364    8.3345    0.0000 C   0  0  0  0  0  0  0  0  0  0  0  0
    2.5752    9.5780    0.0000 C   0  0  0  0  0  0  0  0  0  0  0  0
    0.6574    9.3764    0.0000 O   0  0  0  0  0  0  0  0  0  0  0  0
    1.0203   10.8319    0.0000 C   0  0  0  0  0  0  0  0  0  0  0  0
    3.1067    7.7244    0.0000 C   0  0  0  0  0  0  0  0  0  0  0  0
    3.4696    9.1798    0.0000 O   0  0  0  0  0  0  0  0  0  0  0  0
    4.6031    7.6197    0.0000 C   0  0  0  0  0  0  0  0  0  0  0  0
    5.4419    8.8633    0.0000 C   0  0  0  0  0  0  0  0  0  0  0  0
    6.9382    8.7586    0.0000 C   0  0  0  0  0  0  0  0  0  0  0  0
    7.7770   10.0022    0.0000 O   0  0  0  0  0  0  0  0  0  0  0  0
    9.2733    9.8976    0.0000 C   0  0  0  0  0  0  0  0  0  0  0  0
    3.2635    6.2326    0.0000 C   0  0  0  0  0  0  0  0  0  0  0  0
    4.6338    5.6225    0.0000 C   0  0  0  0  0  0  0  0  0  0  0  0
    2.0500    5.3509    0.0000 O   0  0  0  0  0  0  0  0  0  0  0  0
   -1.8037    3.1240    0.0000 C   0  0  0  0  0  0  0  0  0  0  0  0
   -2.5537    4.4231    0.0000 C   0  0  0  0  0  0  0  0  0  0  0  0
   -2.9184    2.1203    0.0000 C   0  0  0  0  0  0  0  0  0  0  0  0
   -4.1319    3.0020    0.0000 O   0  0  0  0  0  0  0  0  0  0  0  0
   -5.5022    2.3919    0.0000 C   0  0  0  0  0  0  0  0  0  0  0  0
   -6.7157    3.2736    0.0000 O   0  0  0  0  0  0  0  0  0  0  0  0
   -8.0861    2.6635    0.0000 C   0  0  0  0  0  0  0  0  0  0  0  0
   -9.2996    3.5451    0.0000 C   0  0  0  0  0  0  0  0  0  0  0  0
   -8.2428    1.1717    0.0000 C   0  0  0  0  0  0  0  0  0  0  0  0
   -7.0293    0.2900    0.0000 C   0  0  0  0  0  0  0  0  0  0  0  0
   -7.1861   -1.2018    0.0000 N   0  0  0  0  0  0  0  0  0  0  0  0
   -8.5564   -1.8119    0.0000 C   0  0  0  0  0  0  0  0  0  0  0  0
   -5.9726   -2.0835    0.0000 C   0  0  0  0  0  0  0  0  0  0  0  0
   -5.6590    0.9001    0.0000 C   0  0  0  0  0  0  0  0  0  0  0  0
   -5.0760    0.3564    0.0000 O   0  0  0  0  0  0  0  0  0  0  0  0
   -3.5285    0.7500    0.0000 C   0  0  0  0  0  0  0  0  0  0  0  0
   -4.2257    0.3635    0.0000 C   0  0  0  0  0  0  0  0  0  0  0  0
   -4.5705    1.8290    0.0000 O   0  0  0  0  0  0  0  0  0  0  0  0
   -3.5285   -0.7500    0.0000 C   0  0  0  0  0  0  0  0  0  0  0  0
   -2.9184   -2.1203    0.0000 C   0  0  0  0  0  0  0  0  0  0  0  0
   -4.1319   -3.0020    0.0000 C   0  0  0  0  0  0  0  0  0  0  0  0
   -1.8037   -3.1240    0.0000 C   0  0  0  0  0  0  0  0  0  0  0  0
   -0.3771   -3.5875    0.0000 N   0  0  0  0  0  0  0  0  0  0  0  0
   -0.5339   -5.0793    0.0000 C   0  0  0  0  0  0  0  0  0  0  0  0
    1.1147   -3.4307    0.0000 C   0  0  0  0  0  0  0  0  0  0  0  0
    1.5782   -4.8573    0.0000 C   0  0  0  0  0  0  0  0  0  0  0  0
    2.4138   -2.6807    0.0000 C   0  0  0  0  0  0  0  0  0  0  0  0
    3.4175   -3.7955    0.0000 O   0  0  0  0  0  0  0  0  0  0  0  0
    3.2954   -1.4672    0.0000 C   0  0  0  0  0  0  0  0  0  0  0  0
    4.7726   -1.2067    0.0000 C   0  0  0  0  0  0  0  0  0  0  0  0
    4.0903   -2.7393    0.0000 O   0  0  0  0  0  0  0  0  0  0  0  0
  1  2  1  0
  3  2  1  6
  3  4  1  0
  4  5  1  0
  5  6  2  0
  5  7  1  0
  7  8  1  1
  7  9  1  0
  9 10  1  6
 11 10  1  1
 11 12  1  0
 12 13  1  0
 13 14  1  6
 13 15  1  0
 15 16  1  0
 13 17  1  0
 17 18  1  6
 17 19  1  0
 19 20  1  0
 20 21  1  0
 21 22  1  0
 22 23  1  0
 17 24  1  0
 24 25  1  6
 24 26  1  0
  9 27  1  0
 27 28  1  1
 27 29  1  0
 29 30  1  6
 31 30  1  1
 31 32  1  0
 32 33  1  0
 33 34  1  1
 33 35  1  0
 35 36  1  0
 36 37  1  1
 37 38  1  0
 37 39  1  0
 36 40  1  0
 40 41  1  6
 29 42  1  0
 42 43  1  6
 42 44  1  0
 42 45  1  0
 45 46  1  0
 46 47  1  6
 46 48  1  0
 48 49  1  0
 49 50  1  0
 49 51  1  0
 51 52  1  1
 51 53  1  0
 53 54  1  6
 53 55  1  0
 55 56  1  6
 55 57  1  0
 55  3  1  0
 26 11  1  0
 40 31  1  0
M  END
>  <ChEMBL_IDs>  (537) 
CHEMBL294380

>  <target_organism>  (537) 
None

>  <target_molecule_pref_name>  (537) 
nan

>  <# Known Targets>  (537) 
nan

>  <Known Targets>  (537) 
nan

>  <smiles>  (537) 
CC[C@H]1OC(=O)[C@H](C)[C@@H](O[C@H]2C[C@@](C)(OC)[C@@](O)(CCCOC)[C@H](C)O2)[C@H](C)[C@@H](O[C@@H]2O[C@H](C)C[C@H](N(C)C)[C@H]2O)[C@](C)(O)C[C@@H](C)CN(C)[C@H](C)[C@@H](O)[C@]1(C)O

$$$$

     RDKit          2D

 58 60  0  0  0  0  0  0  0  0999 V2000
    5.6205   -1.2990    0.0000 C   0  0  0  0  0  0  0  0  0  0  0  0
    4.8705    0.0000    0.0000 C   0  0  0  0  0  0  0  0  0  0  0  0
    3.3705    0.0000    0.0000 C   0  0  0  0  0  0  0  0  0  0  0  0
    3.0367   -1.4624    0.0000 O   0  0  0  0  0  0  0  0  0  0  0  0
    2.1015   -2.6351    0.0000 C   0  0  0  0  0  0  0  0  0  0  0  0
    3.0367   -3.8079    0.0000 O   0  0  0  0  0  0  0  0  0  0  0  0
    0.7500   -3.2860    0.0000 C   0  0  0  0  0  0  0  0  0  0  0  0
    1.3600   -4.4903    0.0000 C   0  0  0  0  0  0  0  0  0  0  0  0
   -0.7500   -3.2860    0.0000 C   0  0  0  0  0  0  0  0  0  0  0  0
   -1.0838   -4.7484    0.0000 O   0  0  0  0  0  0  0  0  0  0  0  0
    0.0158   -5.7686    0.0000 C   0  0  0  0  0  0  0  0  0  0  0  0
   -0.3180   -7.2310    0.0000 C   0  0  0  0  0  0  0  0  0  0  0  0
    0.7816   -8.2513    0.0000 C   0  0  0  0  0  0  0  0  0  0  0  0
    1.4659   -9.5861    0.0000 C   0  0  0  0  0  0  0  0  0  0  0  0
   -0.4141   -9.1570    0.0000 O   0  0  0  0  0  0  0  0  0  0  0  0
   -0.2276  -10.6453    0.0000 C   0  0  0  0  0  0  0  0  0  0  0  0
    2.2150   -7.8091    0.0000 C   0  0  0  0  0  0  0  0  0  0  0  0
    3.3145   -8.8294    0.0000 O   0  0  0  0  0  0  0  0  0  0  0  0
    2.5487   -6.3467    0.0000 C   0  0  0  0  0  0  0  0  0  0  0  0
    3.9821   -5.9046    0.0000 C   0  0  0  0  0  0  0  0  0  0  0  0
    1.4492   -5.3265    0.0000 O   0  0  0  0  0  0  0  0  0  0  0  0
   -2.1015   -2.6351    0.0000 C   0  0  0  0  0  0  0  0  0  0  0  0
   -3.0367   -3.8079    0.0000 C   0  0  0  0  0  0  0  0  0  0  0  0
   -3.0367   -1.4624    0.0000 C   0  0  0  0  0  0  0  0  0  0  0  0
   -4.3881   -2.1132    0.0000 O   0  0  0  0  0  0  0  0  0  0  0  0
   -5.6275   -1.2682    0.0000 C   0  0  0  0  0  0  0  0  0  0  0  0
   -5.5154    0.2276    0.0000 O   0  0  0  0  0  0  0  0  0  0  0  0
   -6.7548    1.0725    0.0000 C   0  0  0  0  0  0  0  0  0  0  0  0
   -6.6427    2.5684    0.0000 C   0  0  0  0  0  0  0  0  0  0  0  0
   -8.1062    0.4217    0.0000 C   0  0  0  0  0  0  0  0  0  0  0  0
   -8.2183   -1.0741    0.0000 C   0  0  0  0  0  0  0  0  0  0  0  0
   -9.5698   -1.7249    0.0000 N   0  0  0  0  0  0  0  0  0  0  0  0
  -10.8091   -0.8799    0.0000 C   0  0  0  0  0  0  0  0  0  0  0  0
   -9.6819   -3.2207    0.0000 C   0  0  0  0  0  0  0  0  0  0  0  0
   -6.9790   -1.9191    0.0000 C   0  0  0  0  0  0  0  0  0  0  0  0
   -7.0910   -3.4149    0.0000 O   0  0  0  0  0  0  0  0  0  0  0  0
   -3.3705    0.0000    0.0000 C   0  0  0  0  0  0  0  0  0  0  0  0
   -4.6098   -0.8450    0.0000 C   0  0  0  0  0  0  0  0  0  0  0  0
   -4.6098    0.8450    0.0000 O   0  0  0  0  0  0  0  0  0  0  0  0
   -3.0367    1.4624    0.0000 C   0  0  0  0  0  0  0  0  0  0  0  0
   -2.1015    2.6351    0.0000 C   0  0  0  0  0  0  0  0  0  0  0  0
   -3.0367    3.8079    0.0000 C   0  0  0  0  0  0  0  0  0  0  0  0
   -0.7500    3.2860    0.0000 C   0  0  0  0  0  0  0  0  0  0  0  0
   -1.0838    4.7484    0.0000 N   0  0  0  0  0  0  0  0  0  0  0  0
    0.0158    5.7686    0.0000 C   0  0  0  0  0  0  0  0  0  0  0  0
   -0.3180    7.2310    0.0000 C   0  0  0  0  0  0  0  0  0  0  0  0
    0.7816    8.2513    0.0000 O   0  0  0  0  0  0  0  0  0  0  0  0
    0.4478    9.7137    0.0000 C   0  0  0  0  0  0  0  0  0  0  0  0
    1.5474   10.7339    0.0000 C   0  0  0  0  0  0  0  0  0  0  0  0
    1.2136   12.1963    0.0000 O   0  0  0  0  0  0  0  0  0  0  0  0
    2.3132   13.2166    0.0000 C   0  0  0  0  0  0  0  0  0  0  0  0
    0.7500    3.2860    0.0000 C   0  0  0  0  0  0  0  0  0  0  0  0
    1.0838    4.7484    0.0000 C   0  0  0  0  0  0  0  0  0  0  0  0
    2.1015    2.6351    0.0000 C   0  0  0  0  0  0  0  0  0  0  0  0
    3.0367    3.8079    0.0000 O   0  0  0  0  0  0  0  0  0  0  0  0
    3.0367    1.4624    0.0000 C   0  0  0  0  0  0  0  0  0  0  0  0
    3.7867    2.7614    0.0000 C   0  0  0  0  0  0  0  0  0  0  0  0
    4.5199    1.2388    0.0000 O   0  0  0  0  0  0  0  0  0  0  0  0
  1  2  1  0
  3  2  1  1
  3  4  1  0
  4  5  1  0
  5  6  2  0
  5  7  1  0
  7  8  1  6
  7  9  1  0
  9 10  1  1
 10 11  1  0
 11 12  1  0
 12 13  1  0
 13 14  1  0
 13 15  1  0
 15 16  1  0
 13 17  1  0
 17 18  1  0
 17 19  1  0
 19 20  1  0
 19 21  1  0
  9 22  1  0
 22 23  1  6
 22 24  1  0
 24 25  1  1
 25 26  1  0
 26 27  1  0
 27 28  1  0
 28 29  1  0
 28 30  1  0
 30 31  1  0
 31 32  1  0
 32 33  1  0
 32 34  1  0
 31 35  1  0
 35 36  1  0
 24 37  1  0
 37 38  1  1
 37 39  1  0
 37 40  1  0
 40 41  1  0
 41 42  1  1
 41 43  1  0
 43 44  1  6
 44 45  1  0
 45 46  1  0
 46 47  1  0
 47 48  1  0
 48 49  1  0
 49 50  1  0
 50 51  1  0
 43 52  1  0
 52 53  1  6
 52 54  1  0
 54 55  1  1
 54 56  1  0
 56 57  1  1
 56 58  1  0
 56  3  1  0
 21 11  1  0
 35 26  1  0
M  END
>  <ChEMBL_IDs>  (538) 
CHEMBL320498

>  <target_organism>  (538) 
None

>  <target_molecule_pref_name>  (538) 
nan

>  <# Known Targets>  (538) 
nan

>  <Known Targets>  (538) 
nan

>  <smiles>  (538) 
CC[C@H]1OC(=O)[C@H](C)[C@@H](OC2CC(C)(OC)C(O)C(C)O2)[C@H](C)[C@@H](OC2OC(C)CC(N(C)C)C2O)[C@](C)(O)C[C@@H](C)[C@H](NCCOCCOC)[C@H](C)[C@@H](O)[C@]1(C)O

$$$$

     RDKit          2D

 57 59  0  0  0  0  0  0  0  0999 V2000
    7.2845   14.0450    0.0000 C   0  0  0  0  0  0  0  0  0  0  0  0
    7.6474   12.5895    0.0000 C   0  0  0  0  0  0  0  0  0  0  0  0
    6.5684   11.5475    0.0000 C   0  0  0  0  0  0  0  0  0  0  0  0
    6.9313   10.0921    0.0000 C   0  0  0  0  0  0  0  0  0  0  0  0
    5.8523    9.0501    0.0000 N   0  0  0  0  0  0  0  0  0  0  0  0
    6.2151    7.5947    0.0000 C   0  0  0  0  0  0  0  0  0  0  0  0
    5.1361    6.5527    0.0000 C   0  0  0  0  0  0  0  0  0  0  0  0
    4.2973    7.7962    0.0000 O   0  0  0  0  0  0  0  0  0  0  0  0
    3.7658    5.9426    0.0000 C   0  0  0  0  0  0  0  0  0  0  0  0
    2.5523    6.8242    0.0000 C   0  0  0  0  0  0  0  0  0  0  0  0
    3.6090    4.4508    0.0000 O   0  0  0  0  0  0  0  0  0  0  0  0
    4.8225    3.5691    0.0000 C   0  0  0  0  0  0  0  0  0  0  0  0
    4.6658    2.0773    0.0000 O   0  0  0  0  0  0  0  0  0  0  0  0
    3.2954    1.4672    0.0000 C   0  0  0  0  0  0  0  0  0  0  0  0
    3.6073    0.0000    0.0000 C   0  0  0  0  0  0  0  0  0  0  0  0
    5.1073    0.0000    0.0000 C   0  0  0  0  0  0  0  0  0  0  0  0
    3.2954   -1.4672    0.0000 C   0  0  0  0  0  0  0  0  0  0  0  0
    4.6658   -2.0773    0.0000 O   0  0  0  0  0  0  0  0  0  0  0  0
    4.8225   -3.5691    0.0000 C   0  0  0  0  0  0  0  0  0  0  0  0
    3.6090   -4.4508    0.0000 O   0  0  0  0  0  0  0  0  0  0  0  0
    3.7658   -5.9426    0.0000 C   0  0  0  0  0  0  0  0  0  0  0  0
    2.5523   -6.8242    0.0000 C   0  0  0  0  0  0  0  0  0  0  0  0
    5.1361   -6.5527    0.0000 C   0  0  0  0  0  0  0  0  0  0  0  0
    6.3497   -5.6710    0.0000 C   0  0  0  0  0  0  0  0  0  0  0  0
    7.7200   -6.2811    0.0000 N   0  0  0  0  0  0  0  0  0  0  0  0
    7.8768   -7.7729    0.0000 C   0  0  0  0  0  0  0  0  0  0  0  0
    8.9335   -5.3994    0.0000 C   0  0  0  0  0  0  0  0  0  0  0  0
    6.1929   -4.1792    0.0000 C   0  0  0  0  0  0  0  0  0  0  0  0
    7.4064   -3.2975    0.0000 O   0  0  0  0  0  0  0  0  0  0  0  0
    2.4138   -2.6807    0.0000 C   0  0  0  0  0  0  0  0  0  0  0  0
    3.8692   -3.0436    0.0000 C   0  0  0  0  0  0  0  0  0  0  0  0
    2.6225   -4.1661    0.0000 O   0  0  0  0  0  0  0  0  0  0  0  0
    1.1147   -3.4307    0.0000 C   0  0  0  0  0  0  0  0  0  0  0  0
   -0.3771   -3.5875    0.0000 C   0  0  0  0  0  0  0  0  0  0  0  0
   -0.5339   -5.0793    0.0000 C   0  0  0  0  0  0  0  0  0  0  0  0
   -1.8037   -3.1240    0.0000 C   0  0  0  0  0  0  0  0  0  0  0  0
   -2.9184   -2.1203    0.0000 N   0  0  0  0  0  0  0  0  0  0  0  0
   -3.5285   -0.7500    0.0000 C   0  0  0  0  0  0  0  0  0  0  0  0
   -4.9957   -1.0619    0.0000 C   0  0  0  0  0  0  0  0  0  0  0  0
   -3.5285    0.7500    0.0000 C   0  0  0  0  0  0  0  0  0  0  0  0
   -4.9957    1.0619    0.0000 O   0  0  0  0  0  0  0  0  0  0  0  0
   -2.9184    2.1203    0.0000 C   0  0  0  0  0  0  0  0  0  0  0  0
   -4.4175    2.1727    0.0000 C   0  0  0  0  0  0  0  0  0  0  0  0
   -3.4314    3.5299    0.0000 O   0  0  0  0  0  0  0  0  0  0  0  0
   -1.8037    3.1240    0.0000 C   0  0  0  0  0  0  0  0  0  0  0  0
   -2.5537    4.4231    0.0000 C   0  0  0  0  0  0  0  0  0  0  0  0
   -1.8037    5.7221    0.0000 C   0  0  0  0  0  0  0  0  0  0  0  0
   -0.3771    3.5875    0.0000 O   0  0  0  0  0  0  0  0  0  0  0  0
    1.1147    3.4307    0.0000 C   0  0  0  0  0  0  0  0  0  0  0  0
    1.5782    4.8573    0.0000 O   0  0  0  0  0  0  0  0  0  0  0  0
    2.4138    2.6807    0.0000 C   0  0  0  0  0  0  0  0  0  0  0  0
    3.0475    3.8728    0.0000 C   0  0  0  0  0  0  0  0  0  0  0  0
    6.1929    4.1792    0.0000 C   0  0  0  0  0  0  0  0  0  0  0  0
    6.3497    5.6710    0.0000 C   0  0  0  0  0  0  0  0  0  0  0  0
    7.7915    5.2575    0.0000 C   0  0  0  0  0  0  0  0  0  0  0  0
    7.0072    7.0192    0.0000 O   0  0  0  0  0  0  0  0  0  0  0  0
    8.5036    7.1238    0.0000 C   0  0  0  0  0  0  0  0  0  0  0  0
  1  2  1  0
  2  3  1  0
  3  4  1  0
  4  5  1  0
  5  6  1  0
  6  7  1  0
  7  8  1  6
  7  9  1  0
  9 10  1  1
  9 11  1  0
 11 12  1  0
 12 13  1  6
 14 13  1  1
 14 15  1  0
 15 16  1  6
 15 17  1  0
 17 18  1  1
 19 18  1  1
 19 20  1  0
 20 21  1  0
 21 22  1  1
 21 23  1  0
 23 24  1  0
 24 25  1  1
 25 26  1  0
 25 27  1  0
 24 28  1  0
 28 29  1  6
 17 30  1  0
 30 31  1  1
 30 32  1  0
 30 33  1  0
 33 34  1  0
 34 35  1  1
 34 36  1  0
 36 37  1  0
 37 38  1  0
 38 39  1  6
 38 40  1  0
 40 41  1  1
 40 42  1  0
 42 43  1  1
 42 44  1  0
 42 45  1  0
 45 46  1  1
 46 47  1  0
 45 48  1  0
 48 49  1  0
 49 50  2  0
 49 51  1  0
 51 52  1  6
 12 53  1  0
 53 54  1  0
 54 55  1  1
 54 56  1  0
 56 57  1  0
 54  7  1  0
 51 14  1  0
 28 19  1  0
M  END
>  <ChEMBL_IDs>  (539) 
CHEMBL2114273

>  <target_organism>  (539) 
Plasmodium falciparum

>  <target_molecule_pref_name>  (539) 
nan

>  <# Known Targets>  (539) 
nan

>  <Known Targets>  (539) 
nan

>  <smiles>  (539) 
CCCCNC[C@]1(O)[C@H](C)O[C@@H](O[C@H]2[C@H](C)[C@@H](O[C@@H]3O[C@H](C)C[C@H](N(C)C)[C@H]3O)[C@](C)(O)C[C@@H](C)CN[C@H](C)[C@@H](O)[C@](C)(O)[C@@H](CC)OC(=O)[C@@H]2C)C[C@@]1(C)OC

$$$$

     RDKit          2D

 57 59  0  0  0  0  0  0  0  0999 V2000
    7.2845   14.0450    0.0000 C   0  0  0  0  0  0  0  0  0  0  0  0
    7.6474   12.5895    0.0000 C   0  0  0  0  0  0  0  0  0  0  0  0
    6.5684   11.5475    0.0000 C   0  0  0  0  0  0  0  0  0  0  0  0
    6.9313   10.0921    0.0000 C   0  0  0  0  0  0  0  0  0  0  0  0
    5.8523    9.0501    0.0000 N   0  0  0  0  0  0  0  0  0  0  0  0
    6.2151    7.5947    0.0000 C   0  0  0  0  0  0  0  0  0  0  0  0
    5.1361    6.5527    0.0000 C   0  0  0  0  0  0  0  0  0  0  0  0
    4.2973    7.7962    0.0000 O   0  0  0  0  0  0  0  0  0  0  0  0
    3.7658    5.9426    0.0000 C   0  0  0  0  0  0  0  0  0  0  0  0
    2.5523    6.8242    0.0000 C   0  0  0  0  0  0  0  0  0  0  0  0
    3.6090    4.4508    0.0000 O   0  0  0  0  0  0  0  0  0  0  0  0
    4.8225    3.5691    0.0000 C   0  0  0  0  0  0  0  0  0  0  0  0
    4.6658    2.0773    0.0000 O   0  0  0  0  0  0  0  0  0  0  0  0
    3.2954    1.4672    0.0000 C   0  0  0  0  0  0  0  0  0  0  0  0
    3.6073    0.0000    0.0000 C   0  0  0  0  0  0  0  0  0  0  0  0
    5.1073    0.0000    0.0000 C   0  0  0  0  0  0  0  0  0  0  0  0
    3.2954   -1.4672    0.0000 C   0  0  0  0  0  0  0  0  0  0  0  0
    4.6658   -2.0773    0.0000 O   0  0  0  0  0  0  0  0  0  0  0  0
    4.8225   -3.5691    0.0000 C   0  0  0  0  0  0  0  0  0  0  0  0
    3.6090   -4.4508    0.0000 O   0  0  0  0  0  0  0  0  0  0  0  0
    3.7658   -5.9426    0.0000 C   0  0  0  0  0  0  0  0  0  0  0  0
    2.5523   -6.8242    0.0000 C   0  0  0  0  0  0  0  0  0  0  0  0
    5.1361   -6.5527    0.0000 C   0  0  0  0  0  0  0  0  0  0  0  0
    6.3497   -5.6710    0.0000 C   0  0  0  0  0  0  0  0  0  0  0  0
    7.7200   -6.2811    0.0000 N   0  0  0  0  0  0  0  0  0  0  0  0
    7.8768   -7.7729    0.0000 C   0  0  0  0  0  0  0  0  0  0  0  0
    8.9335   -5.3994    0.0000 C   0  0  0  0  0  0  0  0  0  0  0  0
    6.1929   -4.1792    0.0000 C   0  0  0  0  0  0  0  0  0  0  0  0
    7.4064   -3.2975    0.0000 O   0  0  0  0  0  0  0  0  0  0  0  0
    2.4138   -2.6807    0.0000 C   0  0  0  0  0  0  0  0  0  0  0  0
    3.8692   -3.0436    0.0000 C   0  0  0  0  0  0  0  0  0  0  0  0
    2.6225   -4.1661    0.0000 O   0  0  0  0  0  0  0  0  0  0  0  0
    1.1147   -3.4307    0.0000 C   0  0  0  0  0  0  0  0  0  0  0  0
   -0.3771   -3.5875    0.0000 C   0  0  0  0  0  0  0  0  0  0  0  0
   -0.5339   -5.0793    0.0000 C   0  0  0  0  0  0  0  0  0  0  0  0
   -1.8037   -3.1240    0.0000 C   0  0  0  0  0  0  0  0  0  0  0  0
   -2.9184   -2.1203    0.0000 N   0  0  0  0  0  0  0  0  0  0  0  0
   -3.5285   -0.7500    0.0000 C   0  0  0  0  0  0  0  0  0  0  0  0
   -4.9957   -1.0619    0.0000 C   0  0  0  0  0  0  0  0  0  0  0  0
   -3.5285    0.7500    0.0000 C   0  0  0  0  0  0  0  0  0  0  0  0
   -4.9957    1.0619    0.0000 O   0  0  0  0  0  0  0  0  0  0  0  0
   -2.9184    2.1203    0.0000 C   0  0  0  0  0  0  0  0  0  0  0  0
   -4.4175    2.1727    0.0000 C   0  0  0  0  0  0  0  0  0  0  0  0
   -3.4314    3.5299    0.0000 O   0  0  0  0  0  0  0  0  0  0  0  0
   -1.8037    3.1240    0.0000 C   0  0  0  0  0  0  0  0  0  0  0  0
   -2.5537    4.4231    0.0000 C   0  0  0  0  0  0  0  0  0  0  0  0
   -1.8037    5.7221    0.0000 C   0  0  0  0  0  0  0  0  0  0  0  0
   -0.3771    3.5875    0.0000 O   0  0  0  0  0  0  0  0  0  0  0  0
    1.1147    3.4307    0.0000 C   0  0  0  0  0  0  0  0  0  0  0  0
    1.5782    4.8573    0.0000 O   0  0  0  0  0  0  0  0  0  0  0  0
    2.4138    2.6807    0.0000 C   0  0  0  0  0  0  0  0  0  0  0  0
    3.0475    3.8728    0.0000 C   0  0  0  0  0  0  0  0  0  0  0  0
    6.1929    4.1792    0.0000 C   0  0  0  0  0  0  0  0  0  0  0  0
    6.3497    5.6710    0.0000 C   0  0  0  0  0  0  0  0  0  0  0  0
    7.7915    5.2575    0.0000 C   0  0  0  0  0  0  0  0  0  0  0  0
    7.0072    7.0192    0.0000 O   0  0  0  0  0  0  0  0  0  0  0  0
    8.5036    7.1238    0.0000 C   0  0  0  0  0  0  0  0  0  0  0  0
  1  2  1  0
  2  3  1  0
  3  4  1  0
  4  5  1  0
  5  6  1  0
  6  7  1  0
  7  8  1  1
  7  9  1  0
  9 10  1  1
  9 11  1  0
 11 12  1  0
 12 13  1  6
 14 13  1  1
 14 15  1  0
 15 16  1  6
 15 17  1  0
 17 18  1  1
 19 18  1  1
 19 20  1  0
 20 21  1  0
 21 22  1  1
 21 23  1  0
 23 24  1  0
 24 25  1  1
 25 26  1  0
 25 27  1  0
 24 28  1  0
 28 29  1  6
 17 30  1  0
 30 31  1  1
 30 32  1  0
 30 33  1  0
 33 34  1  0
 34 35  1  1
 34 36  1  0
 36 37  1  0
 37 38  1  0
 38 39  1  6
 38 40  1  0
 40 41  1  1
 40 42  1  0
 42 43  1  1
 42 44  1  0
 42 45  1  0
 45 46  1  1
 46 47  1  0
 45 48  1  0
 48 49  1  0
 49 50  2  0
 49 51  1  0
 51 52  1  6
 12 53  1  0
 53 54  1  0
 54 55  1  1
 54 56  1  0
 56 57  1  0
 54  7  1  0
 51 14  1  0
 28 19  1  0
M  END
>  <ChEMBL_IDs>  (540) 
CHEMBL96349

>  <target_organism>  (540) 
None

>  <target_molecule_pref_name>  (540) 
nan

>  <# Known Targets>  (540) 
nan

>  <Known Targets>  (540) 
nan

>  <smiles>  (540) 
CCCCNC[C@@]1(O)[C@H](C)O[C@@H](O[C@H]2[C@H](C)[C@@H](O[C@@H]3O[C@H](C)C[C@H](N(C)C)[C@H]3O)[C@](C)(O)C[C@@H](C)CN[C@H](C)[C@@H](O)[C@](C)(O)[C@@H](CC)OC(=O)[C@@H]2C)C[C@@]1(C)OC

$$$$

     RDKit          2D

 57 59  0  0  0  0  0  0  0  0999 V2000
    5.8573   -1.2990    0.0000 C   0  0  0  0  0  0  0  0  0  0  0  0
    5.1073    0.0000    0.0000 C   0  0  0  0  0  0  0  0  0  0  0  0
    3.6073    0.0000    0.0000 C   0  0  0  0  0  0  0  0  0  0  0  0
    3.2954    1.4672    0.0000 O   0  0  0  0  0  0  0  0  0  0  0  0
    2.4138    2.6807    0.0000 C   0  0  0  0  0  0  0  0  0  0  0  0
    3.4175    3.7955    0.0000 O   0  0  0  0  0  0  0  0  0  0  0  0
    1.1147    3.4307    0.0000 C   0  0  0  0  0  0  0  0  0  0  0  0
    1.8302    4.5756    0.0000 C   0  0  0  0  0  0  0  0  0  0  0  0
   -0.3771    3.5875    0.0000 C   0  0  0  0  0  0  0  0  0  0  0  0
   -0.5339    5.0793    0.0000 O   0  0  0  0  0  0  0  0  0  0  0  0
    0.6797    5.9610    0.0000 C   0  0  0  0  0  0  0  0  0  0  0  0
    0.5229    7.4528    0.0000 C   0  0  0  0  0  0  0  0  0  0  0  0
    1.7364    8.3345    0.0000 C   0  0  0  0  0  0  0  0  0  0  0  0
    2.5752    9.5780    0.0000 C   0  0  0  0  0  0  0  0  0  0  0  0
    0.6574    9.3764    0.0000 O   0  0  0  0  0  0  0  0  0  0  0  0
    1.0203   10.8319    0.0000 C   0  0  0  0  0  0  0  0  0  0  0  0
    3.1067    7.7244    0.0000 C   0  0  0  0  0  0  0  0  0  0  0  0
    3.4696    9.1798    0.0000 O   0  0  0  0  0  0  0  0  0  0  0  0
    4.6031    7.6197    0.0000 C   0  0  0  0  0  0  0  0  0  0  0  0
    5.4419    8.8633    0.0000 N   0  0  0  0  0  0  0  0  0  0  0  0
    6.9382    8.7586    0.0000 C   0  0  0  0  0  0  0  0  0  0  0  0
    7.0428   10.2550    0.0000 C   0  0  0  0  0  0  0  0  0  0  0  0
    6.8336    7.2623    0.0000 C   0  0  0  0  0  0  0  0  0  0  0  0
    8.4345    8.6540    0.0000 C   0  0  0  0  0  0  0  0  0  0  0  0
    3.2635    6.2326    0.0000 C   0  0  0  0  0  0  0  0  0  0  0  0
    4.6338    5.6225    0.0000 C   0  0  0  0  0  0  0  0  0  0  0  0
    2.0500    5.3509    0.0000 O   0  0  0  0  0  0  0  0  0  0  0  0
   -1.8037    3.1240    0.0000 C   0  0  0  0  0  0  0  0  0  0  0  0
   -2.5537    4.4231    0.0000 C   0  0  0  0  0  0  0  0  0  0  0  0
   -2.9184    2.1203    0.0000 C   0  0  0  0  0  0  0  0  0  0  0  0
   -4.1319    3.0020    0.0000 O   0  0  0  0  0  0  0  0  0  0  0  0
   -5.5022    2.3919    0.0000 C   0  0  0  0  0  0  0  0  0  0  0  0
   -6.7157    3.2736    0.0000 O   0  0  0  0  0  0  0  0  0  0  0  0
   -8.0861    2.6635    0.0000 C   0  0  0  0  0  0  0  0  0  0  0  0
   -9.2996    3.5451    0.0000 C   0  0  0  0  0  0  0  0  0  0  0  0
   -8.2428    1.1717    0.0000 C   0  0  0  0  0  0  0  0  0  0  0  0
   -7.0293    0.2900    0.0000 C   0  0  0  0  0  0  0  0  0  0  0  0
   -7.1861   -1.2018    0.0000 N   0  0  0  0  0  0  0  0  0  0  0  0
   -8.5564   -1.8119    0.0000 C   0  0  0  0  0  0  0  0  0  0  0  0
   -5.9726   -2.0835    0.0000 C   0  0  0  0  0  0  0  0  0  0  0  0
   -5.6590    0.9001    0.0000 C   0  0  0  0  0  0  0  0  0  0  0  0
   -5.0760    0.3564    0.0000 O   0  0  0  0  0  0  0  0  0  0  0  0
   -3.5285    0.7500    0.0000 C   0  0  0  0  0  0  0  0  0  0  0  0
   -4.2257    0.3635    0.0000 C   0  0  0  0  0  0  0  0  0  0  0  0
   -4.5705    1.8290    0.0000 O   0  0  0  0  0  0  0  0  0  0  0  0
   -3.5285   -0.7500    0.0000 C   0  0  0  0  0  0  0  0  0  0  0  0
   -2.9184   -2.1203    0.0000 C   0  0  0  0  0  0  0  0  0  0  0  0
   -4.1319   -3.0020    0.0000 C   0  0  0  0  0  0  0  0  0  0  0  0
   -1.8037   -3.1240    0.0000 C   0  0  0  0  0  0  0  0  0  0  0  0
   -0.3771   -3.5875    0.0000 N   0  0  0  0  0  0  0  0  0  0  0  0
    1.1147   -3.4307    0.0000 C   0  0  0  0  0  0  0  0  0  0  0  0
    1.5782   -4.8573    0.0000 C   0  0  0  0  0  0  0  0  0  0  0  0
    2.4138   -2.6807    0.0000 C   0  0  0  0  0  0  0  0  0  0  0  0
    3.4175   -3.7955    0.0000 O   0  0  0  0  0  0  0  0  0  0  0  0
    3.2954   -1.4672    0.0000 C   0  0  0  0  0  0  0  0  0  0  0  0
    4.7726   -1.2067    0.0000 C   0  0  0  0  0  0  0  0  0  0  0  0
    4.0903   -2.7393    0.0000 O   0  0  0  0  0  0  0  0  0  0  0  0
  1  2  1  0
  3  2  1  6
  3  4  1  0
  4  5  1  0
  5  6  2  0
  5  7  1  0
  7  8  1  1
  7  9  1  0
  9 10  1  6
 11 10  1  1
 11 12  1  0
 12 13  1  0
 13 14  1  6
 13 15  1  0
 15 16  1  0
 13 17  1  0
 17 18  1  1
 17 19  1  0
 19 20  1  0
 20 21  1  0
 21 22  1  0
 21 23  1  0
 21 24  1  0
 17 25  1  0
 25 26  1  6
 25 27  1  0
  9 28  1  0
 28 29  1  1
 28 30  1  0
 30 31  1  6
 32 31  1  1
 32 33  1  0
 33 34  1  0
 34 35  1  1
 34 36  1  0
 36 37  1  0
 37 38  1  1
 38 39  1  0
 38 40  1  0
 37 41  1  0
 41 42  1  6
 30 43  1  0
 43 44  1  6
 43 45  1  0
 43 46  1  0
 46 47  1  0
 47 48  1  6
 47 49  1  0
 49 50  1  0
 50 51  1  0
 51 52  1  1
 51 53  1  0
 53 54  1  6
 53 55  1  0
 55 56  1  6
 55 57  1  0
 55  3  1  0
 27 11  1  0
 41 32  1  0
M  END
>  <ChEMBL_IDs>  (541) 
CHEMBL2114272

>  <target_organism>  (541) 
Plasmodium falciparum

>  <target_molecule_pref_name>  (541) 
nan

>  <# Known Targets>  (541) 
nan

>  <Known Targets>  (541) 
nan

>  <smiles>  (541) 
CC[C@H]1OC(=O)[C@H](C)[C@@H](O[C@H]2C[C@@](C)(OC)[C@](O)(CNC(C)(C)C)[C@H](C)O2)[C@H](C)[C@@H](O[C@@H]2O[C@H](C)C[C@H](N(C)C)[C@H]2O)[C@](C)(O)C[C@@H](C)CN[C@H](C)[C@@H](O)[C@]1(C)O

$$$$

     RDKit          2D

 57 59  0  0  0  0  0  0  0  0999 V2000
    5.8573   -1.2990    0.0000 C   0  0  0  0  0  0  0  0  0  0  0  0
    5.1073    0.0000    0.0000 C   0  0  0  0  0  0  0  0  0  0  0  0
    3.6073    0.0000    0.0000 C   0  0  0  0  0  0  0  0  0  0  0  0
    3.2954    1.4672    0.0000 O   0  0  0  0  0  0  0  0  0  0  0  0
    2.4138    2.6807    0.0000 C   0  0  0  0  0  0  0  0  0  0  0  0
    3.4175    3.7955    0.0000 O   0  0  0  0  0  0  0  0  0  0  0  0
    1.1147    3.4307    0.0000 C   0  0  0  0  0  0  0  0  0  0  0  0
    1.8302    4.5756    0.0000 C   0  0  0  0  0  0  0  0  0  0  0  0
   -0.3771    3.5875    0.0000 C   0  0  0  0  0  0  0  0  0  0  0  0
   -0.5339    5.0793    0.0000 O   0  0  0  0  0  0  0  0  0  0  0  0
    0.6797    5.9610    0.0000 C   0  0  0  0  0  0  0  0  0  0  0  0
    0.5229    7.4528    0.0000 C   0  0  0  0  0  0  0  0  0  0  0  0
    1.7364    8.3345    0.0000 C   0  0  0  0  0  0  0  0  0  0  0  0
    2.5752    9.5780    0.0000 C   0  0  0  0  0  0  0  0  0  0  0  0
    0.6574    9.3764    0.0000 O   0  0  0  0  0  0  0  0  0  0  0  0
    1.0203   10.8319    0.0000 C   0  0  0  0  0  0  0  0  0  0  0  0
    3.1067    7.7244    0.0000 C   0  0  0  0  0  0  0  0  0  0  0  0
    3.4696    9.1798    0.0000 O   0  0  0  0  0  0  0  0  0  0  0  0
    4.6031    7.6197    0.0000 C   0  0  0  0  0  0  0  0  0  0  0  0
    5.4419    8.8633    0.0000 N   0  0  0  0  0  0  0  0  0  0  0  0
    6.9382    8.7586    0.0000 C   0  0  0  0  0  0  0  0  0  0  0  0
    7.0428   10.2550    0.0000 C   0  0  0  0  0  0  0  0  0  0  0  0
    6.8336    7.2623    0.0000 C   0  0  0  0  0  0  0  0  0  0  0  0
    8.4345    8.6540    0.0000 C   0  0  0  0  0  0  0  0  0  0  0  0
    3.2635    6.2326    0.0000 C   0  0  0  0  0  0  0  0  0  0  0  0
    4.6338    5.6225    0.0000 C   0  0  0  0  0  0  0  0  0  0  0  0
    2.0500    5.3509    0.0000 O   0  0  0  0  0  0  0  0  0  0  0  0
   -1.8037    3.1240    0.0000 C   0  0  0  0  0  0  0  0  0  0  0  0
   -2.5537    4.4231    0.0000 C   0  0  0  0  0  0  0  0  0  0  0  0
   -2.9184    2.1203    0.0000 C   0  0  0  0  0  0  0  0  0  0  0  0
   -4.1319    3.0020    0.0000 O   0  0  0  0  0  0  0  0  0  0  0  0
   -5.5022    2.3919    0.0000 C   0  0  0  0  0  0  0  0  0  0  0  0
   -6.7157    3.2736    0.0000 O   0  0  0  0  0  0  0  0  0  0  0  0
   -8.0861    2.6635    0.0000 C   0  0  0  0  0  0  0  0  0  0  0  0
   -9.2996    3.5451    0.0000 C   0  0  0  0  0  0  0  0  0  0  0  0
   -8.2428    1.1717    0.0000 C   0  0  0  0  0  0  0  0  0  0  0  0
   -7.0293    0.2900    0.0000 C   0  0  0  0  0  0  0  0  0  0  0  0
   -7.1861   -1.2018    0.0000 N   0  0  0  0  0  0  0  0  0  0  0  0
   -8.5564   -1.8119    0.0000 C   0  0  0  0  0  0  0  0  0  0  0  0
   -5.9726   -2.0835    0.0000 C   0  0  0  0  0  0  0  0  0  0  0  0
   -5.6590    0.9001    0.0000 C   0  0  0  0  0  0  0  0  0  0  0  0
   -5.0760    0.3564    0.0000 O   0  0  0  0  0  0  0  0  0  0  0  0
   -3.5285    0.7500    0.0000 C   0  0  0  0  0  0  0  0  0  0  0  0
   -4.2257    0.3635    0.0000 C   0  0  0  0  0  0  0  0  0  0  0  0
   -4.5705    1.8290    0.0000 O   0  0  0  0  0  0  0  0  0  0  0  0
   -3.5285   -0.7500    0.0000 C   0  0  0  0  0  0  0  0  0  0  0  0
   -2.9184   -2.1203    0.0000 C   0  0  0  0  0  0  0  0  0  0  0  0
   -4.1319   -3.0020    0.0000 C   0  0  0  0  0  0  0  0  0  0  0  0
   -1.8037   -3.1240    0.0000 C   0  0  0  0  0  0  0  0  0  0  0  0
   -0.3771   -3.5875    0.0000 N   0  0  0  0  0  0  0  0  0  0  0  0
    1.1147   -3.4307    0.0000 C   0  0  0  0  0  0  0  0  0  0  0  0
    1.5782   -4.8573    0.0000 C   0  0  0  0  0  0  0  0  0  0  0  0
    2.4138   -2.6807    0.0000 C   0  0  0  0  0  0  0  0  0  0  0  0
    3.4175   -3.7955    0.0000 O   0  0  0  0  0  0  0  0  0  0  0  0
    3.2954   -1.4672    0.0000 C   0  0  0  0  0  0  0  0  0  0  0  0
    4.7726   -1.2067    0.0000 C   0  0  0  0  0  0  0  0  0  0  0  0
    4.0903   -2.7393    0.0000 O   0  0  0  0  0  0  0  0  0  0  0  0
  1  2  1  0
  3  2  1  6
  3  4  1  0
  4  5  1  0
  5  6  2  0
  5  7  1  0
  7  8  1  1
  7  9  1  0
  9 10  1  6
 11 10  1  1
 11 12  1  0
 12 13  1  0
 13 14  1  6
 13 15  1  0
 15 16  1  0
 13 17  1  0
 17 18  1  6
 17 19  1  0
 19 20  1  0
 20 21  1  0
 21 22  1  0
 21 23  1  0
 21 24  1  0
 17 25  1  0
 25 26  1  6
 25 27  1  0
  9 28  1  0
 28 29  1  1
 28 30  1  0
 30 31  1  6
 32 31  1  1
 32 33  1  0
 33 34  1  0
 34 35  1  1
 34 36  1  0
 36 37  1  0
 37 38  1  1
 38 39  1  0
 38 40  1  0
 37 41  1  0
 41 42  1  6
 30 43  1  0
 43 44  1  6
 43 45  1  0
 43 46  1  0
 46 47  1  0
 47 48  1  6
 47 49  1  0
 49 50  1  0
 50 51  1  0
 51 52  1  1
 51 53  1  0
 53 54  1  6
 53 55  1  0
 55 56  1  6
 55 57  1  0
 55  3  1  0
 27 11  1  0
 41 32  1  0
M  END
>  <ChEMBL_IDs>  (542) 
CHEMBL318062

>  <target_organism>  (542) 
None

>  <target_molecule_pref_name>  (542) 
nan

>  <# Known Targets>  (542) 
nan

>  <Known Targets>  (542) 
nan

>  <smiles>  (542) 
CC[C@H]1OC(=O)[C@H](C)[C@@H](O[C@H]2C[C@@](C)(OC)[C@@](O)(CNC(C)(C)C)[C@H](C)O2)[C@H](C)[C@@H](O[C@@H]2O[C@H](C)C[C@H](N(C)C)[C@H]2O)[C@](C)(O)C[C@@H](C)CN[C@H](C)[C@@H](O)[C@]1(C)O

$$$$

     RDKit          2D

 59 61  0  0  0  0  0  0  0  0999 V2000
    5.8573   -1.2990    0.0000 C   0  0  0  0  0  0  0  0  0  0  0  0
    5.1073    0.0000    0.0000 C   0  0  0  0  0  0  0  0  0  0  0  0
    3.6073    0.0000    0.0000 C   0  0  0  0  0  0  0  0  0  0  0  0
    3.2954    1.4672    0.0000 O   0  0  0  0  0  0  0  0  0  0  0  0
    2.4138    2.6807    0.0000 C   0  0  0  0  0  0  0  0  0  0  0  0
    3.4175    3.7955    0.0000 O   0  0  0  0  0  0  0  0  0  0  0  0
    1.1147    3.4307    0.0000 C   0  0  0  0  0  0  0  0  0  0  0  0
    1.8302    4.5756    0.0000 C   0  0  0  0  0  0  0  0  0  0  0  0
   -0.3771    3.5875    0.0000 C   0  0  0  0  0  0  0  0  0  0  0  0
   -0.5339    5.0793    0.0000 O   0  0  0  0  0  0  0  0  0  0  0  0
    0.6797    5.9610    0.0000 C   0  0  0  0  0  0  0  0  0  0  0  0
    0.5229    7.4528    0.0000 C   0  0  0  0  0  0  0  0  0  0  0  0
    1.7364    8.3345    0.0000 C   0  0  0  0  0  0  0  0  0  0  0  0
    2.5752    9.5780    0.0000 C   0  0  0  0  0  0  0  0  0  0  0  0
    0.6574    9.3764    0.0000 O   0  0  0  0  0  0  0  0  0  0  0  0
    1.0203   10.8319    0.0000 C   0  0  0  0  0  0  0  0  0  0  0  0
    3.1067    7.7244    0.0000 C   0  0  0  0  0  0  0  0  0  0  0  0
    3.4696    9.1798    0.0000 O   0  0  0  0  0  0  0  0  0  0  0  0
    4.6031    7.6197    0.0000 C   0  0  0  0  0  0  0  0  0  0  0  0
    5.4419    8.8633    0.0000 N   0  0  0  0  0  0  0  0  0  0  0  0
    6.9382    8.7586    0.0000 C   0  0  0  0  0  0  0  0  0  0  0  0
    7.7770   10.0022    0.0000 C   0  0  0  0  0  0  0  0  0  0  0  0
    9.2733    9.8976    0.0000 O   0  0  0  0  0  0  0  0  0  0  0  0
    4.7843   10.2115    0.0000 C   0  0  0  0  0  0  0  0  0  0  0  0
    5.6231   11.4550    0.0000 C   0  0  0  0  0  0  0  0  0  0  0  0
    4.9655   12.8032    0.0000 O   0  0  0  0  0  0  0  0  0  0  0  0
    3.2635    6.2326    0.0000 C   0  0  0  0  0  0  0  0  0  0  0  0
    4.6338    5.6225    0.0000 C   0  0  0  0  0  0  0  0  0  0  0  0
    2.0500    5.3509    0.0000 O   0  0  0  0  0  0  0  0  0  0  0  0
   -1.8037    3.1240    0.0000 C   0  0  0  0  0  0  0  0  0  0  0  0
   -2.5537    4.4231    0.0000 C   0  0  0  0  0  0  0  0  0  0  0  0
   -2.9184    2.1203    0.0000 C   0  0  0  0  0  0  0  0  0  0  0  0
   -4.1319    3.0020    0.0000 O   0  0  0  0  0  0  0  0  0  0  0  0
   -5.5022    2.3919    0.0000 C   0  0  0  0  0  0  0  0  0  0  0  0
   -6.7157    3.2736    0.0000 O   0  0  0  0  0  0  0  0  0  0  0  0
   -8.0861    2.6635    0.0000 C   0  0  0  0  0  0  0  0  0  0  0  0
   -9.2996    3.5451    0.0000 C   0  0  0  0  0  0  0  0  0  0  0  0
   -8.2428    1.1717    0.0000 C   0  0  0  0  0  0  0  0  0  0  0  0
   -7.0293    0.2900    0.0000 C   0  0  0  0  0  0  0  0  0  0  0  0
   -7.1861   -1.2018    0.0000 N   0  0  0  0  0  0  0  0  0  0  0  0
   -8.5564   -1.8119    0.0000 C   0  0  0  0  0  0  0  0  0  0  0  0
   -5.9726   -2.0835    0.0000 C   0  0  0  0  0  0  0  0  0  0  0  0
   -5.6590    0.9001    0.0000 C   0  0  0  0  0  0  0  0  0  0  0  0
   -5.0760    0.3564    0.0000 O   0  0  0  0  0  0  0  0  0  0  0  0
   -3.5285    0.7500    0.0000 C   0  0  0  0  0  0  0  0  0  0  0  0
   -4.2257    0.3635    0.0000 C   0  0  0  0  0  0  0  0  0  0  0  0
   -4.5705    1.8290    0.0000 O   0  0  0  0  0  0  0  0  0  0  0  0
   -3.5285   -0.7500    0.0000 C   0  0  0  0  0  0  0  0  0  0  0  0
   -2.9184   -2.1203    0.0000 C   0  0  0  0  0  0  0  0  0  0  0  0
   -4.1319   -3.0020    0.0000 C   0  0  0  0  0  0  0  0  0  0  0  0
   -1.8037   -3.1240    0.0000 C   0  0  0  0  0  0  0  0  0  0  0  0
   -0.3771   -3.5875    0.0000 N   0  0  0  0  0  0  0  0  0  0  0  0
    1.1147   -3.4307    0.0000 C   0  0  0  0  0  0  0  0  0  0  0  0
    1.5782   -4.8573    0.0000 C   0  0  0  0  0  0  0  0  0  0  0  0
    2.4138   -2.6807    0.0000 C   0  0  0  0  0  0  0  0  0  0  0  0
    3.4175   -3.7955    0.0000 O   0  0  0  0  0  0  0  0  0  0  0  0
    3.2954   -1.4672    0.0000 C   0  0  0  0  0  0  0  0  0  0  0  0
    4.7726   -1.2067    0.0000 C   0  0  0  0  0  0  0  0  0  0  0  0
    4.0903   -2.7393    0.0000 O   0  0  0  0  0  0  0  0  0  0  0  0
  1  2  1  0
  3  2  1  6
  3  4  1  0
  4  5  1  0
  5  6  2  0
  5  7  1  0
  7  8  1  1
  7  9  1  0
  9 10  1  6
 11 10  1  1
 11 12  1  0
 12 13  1  0
 13 14  1  6
 13 15  1  0
 15 16  1  0
 13 17  1  0
 17 18  1  6
 17 19  1  0
 19 20  1  0
 20 21  1  0
 21 22  1  0
 22 23  1  0
 20 24  1  0
 24 25  1  0
 25 26  1  0
 17 27  1  0
 27 28  1  6
 27 29  1  0
  9 30  1  0
 30 31  1  1
 30 32  1  0
 32 33  1  6
 34 33  1  1
 34 35  1  0
 35 36  1  0
 36 37  1  1
 36 38  1  0
 38 39  1  0
 39 40  1  1
 40 41  1  0
 40 42  1  0
 39 43  1  0
 43 44  1  6
 32 45  1  0
 45 46  1  6
 45 47  1  0
 45 48  1  0
 48 49  1  0
 49 50  1  6
 49 51  1  0
 51 52  1  0
 52 53  1  0
 53 54  1  1
 53 55  1  0
 55 56  1  6
 55 57  1  0
 57 58  1  6
 57 59  1  0
 57  3  1  0
 29 11  1  0
 43 34  1  0
M  END
>  <ChEMBL_IDs>  (543) 
CHEMBL91814

>  <target_organism>  (543) 
None

>  <target_molecule_pref_name>  (543) 
nan

>  <# Known Targets>  (543) 
nan

>  <Known Targets>  (543) 
nan

>  <smiles>  (543) 
CC[C@H]1OC(=O)[C@H](C)[C@@H](O[C@H]2C[C@@](C)(OC)[C@@](O)(CN(CCO)CCO)[C@H](C)O2)[C@H](C)[C@@H](O[C@@H]2O[C@H](C)C[C@H](N(C)C)[C@H]2O)[C@](C)(O)C[C@@H](C)CN[C@H](C)[C@@H](O)[C@]1(C)O

$$$$

     RDKit          2D

 61 63  0  0  0  0  0  0  0  0999 V2000
    6.0944   -1.2990    0.0000 C   0  0  0  0  0  0  0  0  0  0  0  0
    5.3444    0.0000    0.0000 O   0  0  0  0  0  0  0  0  0  0  0  0
    3.8444    0.0000    0.0000 C   0  0  0  0  0  0  0  0  0  0  0  0
    3.5517   -1.4712    0.0000 C   0  0  0  0  0  0  0  0  0  0  0  0
    4.9376   -2.0452    0.0000 O   0  0  0  0  0  0  0  0  0  0  0  0
    2.7184   -2.7184    0.0000 C   0  0  0  0  0  0  0  0  0  0  0  0
    1.4712   -3.5517    0.0000 C   0  0  0  0  0  0  0  0  0  0  0  0
    2.0452   -4.9376    0.0000 O   0  0  0  0  0  0  0  0  0  0  0  0
   -0.0000   -3.8444    0.0000 O   0  0  0  0  0  0  0  0  0  0  0  0
   -1.4712   -3.5517    0.0000 C   0  0  0  0  0  0  0  0  0  0  0  0
   -2.0452   -4.9376    0.0000 C   0  0  0  0  0  0  0  0  0  0  0  0
   -2.7184   -2.7184    0.0000 C   0  0  0  0  0  0  0  0  0  0  0  0
   -3.5517   -1.4712    0.0000 C   0  0  0  0  0  0  0  0  0  0  0  0
   -3.8444    0.0000    0.0000 C   0  0  0  0  0  0  0  0  0  0  0  0
   -3.5517    1.4712    0.0000 C   0  0  0  0  0  0  0  0  0  0  0  0
   -2.7184    2.7184    0.0000 C   0  0  0  0  0  0  0  0  0  0  0  0
   -1.4712    3.5517    0.0000 C   0  0  0  0  0  0  0  0  0  0  0  0
   -2.0452    4.9376    0.0000 O   0  0  0  0  0  0  0  0  0  0  0  0
   -3.5324    5.1333    0.0000 C   0  0  0  0  0  0  0  0  0  0  0  0
   -4.1064    6.5192    0.0000 C   0  0  0  0  0  0  0  0  0  0  0  0
   -4.4455    3.9433    0.0000 O   0  0  0  0  0  0  0  0  0  0  0  0
    0.0000    3.8444    0.0000 C   0  0  0  0  0  0  0  0  0  0  0  0
    0.0000    5.3444    0.0000 C   0  0  0  0  0  0  0  0  0  0  0  0
    1.4712    3.5517    0.0000 C   0  0  0  0  0  0  0  0  0  0  0  0
    2.7184    2.7184    0.0000 C   0  0  0  0  0  0  0  0  0  0  0  0
    3.7790    3.7790    0.0000 C   0  0  0  0  0  0  0  0  0  0  0  0
    5.2279    3.3908    0.0000 C   0  0  0  0  0  0  0  0  0  0  0  0
    6.2886    4.4515    0.0000 O   0  0  0  0  0  0  0  0  0  0  0  0
    3.5517    1.4712    0.0000 C   0  0  0  0  0  0  0  0  0  0  0  0
    4.9376    2.0452    0.0000 O   0  0  0  0  0  0  0  0  0  0  0  0
    6.1276    1.1321    0.0000 C   0  0  0  0  0  0  0  0  0  0  0  0
    5.9318   -0.3551    0.0000 O   0  0  0  0  0  0  0  0  0  0  0  0
    7.1218   -1.2682    0.0000 C   0  0  0  0  0  0  0  0  0  0  0  0
    6.9260   -2.7554    0.0000 C   0  0  0  0  0  0  0  0  0  0  0  0
    8.5076   -0.6942    0.0000 C   0  0  0  0  0  0  0  0  0  0  0  0
    9.6977   -1.6074    0.0000 O   0  0  0  0  0  0  0  0  0  0  0  0
   11.0835   -1.0333    0.0000 C   0  0  0  0  0  0  0  0  0  0  0  0
   12.2735   -1.9465    0.0000 C   0  0  0  0  0  0  0  0  0  0  0  0
   13.6593   -1.3725    0.0000 C   0  0  0  0  0  0  0  0  0  0  0  0
   15.1579   -1.3070    0.0000 C   0  0  0  0  0  0  0  0  0  0  0  0
   13.9840   -2.8369    0.0000 O   0  0  0  0  0  0  0  0  0  0  0  0
   12.8781   -3.8503    0.0000 C   0  0  0  0  0  0  0  0  0  0  0  0
   13.2027   -5.3147    0.0000 C   0  0  0  0  0  0  0  0  0  0  0  0
   11.4475   -3.3992    0.0000 O   0  0  0  0  0  0  0  0  0  0  0  0
   13.8551    0.1147    0.0000 C   0  0  0  0  0  0  0  0  0  0  0  0
   15.2410    0.6887    0.0000 O   0  0  0  0  0  0  0  0  0  0  0  0
   15.4367    2.1759    0.0000 C   0  0  0  0  0  0  0  0  0  0  0  0
   16.8226    2.7499    0.0000 C   0  0  0  0  0  0  0  0  0  0  0  0
   14.2467    3.0890    0.0000 O   0  0  0  0  0  0  0  0  0  0  0  0
   12.6651    1.0279    0.0000 C   0  0  0  0  0  0  0  0  0  0  0  0
   12.8609    2.5150    0.0000 C   0  0  0  0  0  0  0  0  0  0  0  0
   11.2793    0.4538    0.0000 O   0  0  0  0  0  0  0  0  0  0  0  0
    8.7034    0.7929    0.0000 C   0  0  0  0  0  0  0  0  0  0  0  0
   10.0893    1.3670    0.0000 N   0  0  0  0  0  0  0  0  0  0  0  0
   10.4649    2.8192    0.0000 C   0  0  0  0  0  0  0  0  0  0  0  0
   11.4649    0.7689    0.0000 C   0  0  0  0  0  0  0  0  0  0  0  0
    7.5134    1.7061    0.0000 C   0  0  0  0  0  0  0  0  0  0  0  0
    7.7092    3.1933    0.0000 O   0  0  0  0  0  0  0  0  0  0  0  0
    9.0950    3.7673    0.0000 C   0  0  0  0  0  0  0  0  0  0  0  0
    9.2908    5.2544    0.0000 C   0  0  0  0  0  0  0  0  0  0  0  0
   10.3875    3.0060    0.0000 O   0  0  0  0  0  0  0  0  0  0  0  0
  1  2  1  0
  2  3  1  0
  3  4  1  0
  4  5  1  0
  4  6  1  0
  6  7  1  0
  7  8  2  0
  7  9  1  0
  9 10  1  0
 10 11  1  0
 10 12  1  0
 12 13  1  0
 13 14  2  0
 14 15  1  0
 15 16  2  0
 16 17  1  0
 17 18  1  0
 18 19  1  0
 19 20  1  0
 19 21  2  0
 17 22  1  0
 22 23  1  0
 22 24  1  0
 24 25  1  0
 25 26  1  0
 26 27  1  0
 27 28  2  0
 25 29  1  0
 29 30  1  0
 30 31  1  0
 31 32  1  0
 32 33  1  0
 33 34  1  0
 33 35  1  0
 35 36  1  0
 36 37  1  0
 37 38  1  0
 38 39  1  0
 39 40  1  0
 39 41  1  0
 41 42  1  0
 42 43  1  0
 42 44  2  0
 39 45  1  0
 45 46  1  0
 46 47  1  0
 47 48  1  0
 47 49  2  0
 45 50  1  0
 50 51  1  0
 50 52  1  0
 35 53  1  0
 53 54  1  0
 54 55  1  0
 54 56  1  0
 53 57  1  0
 57 58  1  0
 58 59  1  0
 59 60  1  0
 59 61  2  0
 29  3  1  0
 57 31  1  0
 52 37  1  0
M  END
>  <ChEMBL_IDs>  (544) 
nan

>  <target_organism>  (544) 
nan

>  <target_molecule_pref_name>  (544) 
nan

>  <# Known Targets>  (544) 
nan

>  <Known Targets>  (544) 
nan

>  <smiles>  (544) 
COC1C(O)CC(=O)OC(C)C/C=C\C=C/C(OC(C)=O)C(C)CC(CC=O)C1OC1OC(C)C(OC2CC(C)(OC(C)=O)C(OC(C)=O)C(C)O2)C(N(C)C)C1OC(C)=O

$$$$

     RDKit          2D

 61 63  0  0  0  0  0  0  0  0999 V2000
    6.0944   -1.2990    0.0000 C   0  0  0  0  0  0  0  0  0  0  0  0
    5.3444    0.0000    0.0000 C   0  0  0  0  0  0  0  0  0  0  0  0
    3.8444    0.0000    0.0000 C   0  0  0  0  0  0  0  0  0  0  0  0
    3.5517   -1.4712    0.0000 O   0  0  0  0  0  0  0  0  0  0  0  0
    2.7184   -2.7184    0.0000 C   0  0  0  0  0  0  0  0  0  0  0  0
    3.7790   -3.7790    0.0000 O   0  0  0  0  0  0  0  0  0  0  0  0
    1.4712   -3.5517    0.0000 C   0  0  0  0  0  0  0  0  0  0  0  0
   -0.0000   -3.8444    0.0000 C   0  0  0  0  0  0  0  0  0  0  0  0
   -0.0000   -5.3444    0.0000 O   0  0  0  0  0  0  0  0  0  0  0  0
   -1.4712   -3.5517    0.0000 C   0  0  0  0  0  0  0  0  0  0  0  0
   -1.6507   -4.7534    0.0000 C   0  0  0  0  0  0  0  0  0  0  0  0
   -2.7184   -2.7184    0.0000 C   0  0  0  0  0  0  0  0  0  0  0  0
   -3.7790   -3.7790    0.0000 O   0  0  0  0  0  0  0  0  0  0  0  0
   -3.3908   -5.2279    0.0000 C   0  0  0  0  0  0  0  0  0  0  0  0
   -1.9419   -5.6162    0.0000 O   0  0  0  0  0  0  0  0  0  0  0  0
   -1.5537   -7.0650    0.0000 C   0  0  0  0  0  0  0  0  0  0  0  0
   -0.1048   -7.4533    0.0000 C   0  0  0  0  0  0  0  0  0  0  0  0
   -2.6144   -8.1257    0.0000 C   0  0  0  0  0  0  0  0  0  0  0  0
   -2.2261   -9.5746    0.0000 O   0  0  0  0  0  0  0  0  0  0  0  0
   -3.2868  -10.6353    0.0000 C   0  0  0  0  0  0  0  0  0  0  0  0
   -2.8986  -12.0841    0.0000 C   0  0  0  0  0  0  0  0  0  0  0  0
   -4.7357  -10.2470    0.0000 O   0  0  0  0  0  0  0  0  0  0  0  0
   -4.0632   -7.7375    0.0000 C   0  0  0  0  0  0  0  0  0  0  0  0
   -5.1239   -8.7981    0.0000 O   0  0  0  0  0  0  0  0  0  0  0  0
   -4.4515   -6.2886    0.0000 C   0  0  0  0  0  0  0  0  0  0  0  0
   -5.9004   -5.9004    0.0000 O   0  0  0  0  0  0  0  0  0  0  0  0
   -6.9610   -6.9610    0.0000 C   0  0  0  0  0  0  0  0  0  0  0  0
   -8.4099   -6.5728    0.0000 C   0  0  0  0  0  0  0  0  0  0  0  0
   -6.5728   -8.4099    0.0000 O   0  0  0  0  0  0  0  0  0  0  0  0
   -3.5517   -1.4712    0.0000 C   0  0  0  0  0  0  0  0  0  0  0  0
   -4.9376   -2.0452    0.0000 C   0  0  0  0  0  0  0  0  0  0  0  0
   -6.1276   -1.1321    0.0000 C   0  0  0  0  0  0  0  0  0  0  0  0
   -7.5134   -1.7061    0.0000 O   0  0  0  0  0  0  0  0  0  0  0  0
   -8.7034   -0.7929    0.0000 C   0  0  0  0  0  0  0  0  0  0  0  0
   -5.9318    0.3551    0.0000 O   0  0  0  0  0  0  0  0  0  0  0  0
   -7.1218    1.2682    0.0000 C   0  0  0  0  0  0  0  0  0  0  0  0
   -3.8444    0.0000    0.0000 C   0  0  0  0  0  0  0  0  0  0  0  0
   -3.5517    1.4712    0.0000 C   0  0  0  0  0  0  0  0  0  0  0  0
   -4.9376    2.0452    0.0000 C   0  0  0  0  0  0  0  0  0  0  0  0
   -2.7184    2.7184    0.0000 C   0  0  0  0  0  0  0  0  0  0  0  0
   -3.7790    3.7790    0.0000 O   0  0  0  0  0  0  0  0  0  0  0  0
   -1.4712    3.5517    0.0000 C   0  0  0  0  0  0  0  0  0  0  0  0
    0.0000    3.8444    0.0000 C   0  0  0  0  0  0  0  0  0  0  0  0
    1.4712    3.5517    0.0000 C   0  0  0  0  0  0  0  0  0  0  0  0
    2.0452    4.9376    0.0000 C   0  0  0  0  0  0  0  0  0  0  0  0
    2.7184    2.7184    0.0000 C   0  0  0  0  0  0  0  0  0  0  0  0
    3.5517    1.4712    0.0000 C   0  0  0  0  0  0  0  0  0  0  0  0
    4.9376    2.0452    0.0000 C   0  0  0  0  0  0  0  0  0  0  0  0
    6.1276    1.1321    0.0000 O   0  0  0  0  0  0  0  0  0  0  0  0
    7.5134    1.7061    0.0000 C   0  0  0  0  0  0  0  0  0  0  0  0
    8.7034    0.7929    0.0000 O   0  0  0  0  0  0  0  0  0  0  0  0
   10.0893    1.3670    0.0000 C   0  0  0  0  0  0  0  0  0  0  0  0
   11.2793    0.4538    0.0000 C   0  0  0  0  0  0  0  0  0  0  0  0
   10.2850    2.8541    0.0000 C   0  0  0  0  0  0  0  0  0  0  0  0
   11.6709    3.4282    0.0000 O   0  0  0  0  0  0  0  0  0  0  0  0
    9.0950    3.7673    0.0000 C   0  0  0  0  0  0  0  0  0  0  0  0
    9.2908    5.2544    0.0000 O   0  0  0  0  0  0  0  0  0  0  0  0
    8.1008    6.1676    0.0000 C   0  0  0  0  0  0  0  0  0  0  0  0
    7.7092    3.1933    0.0000 C   0  0  0  0  0  0  0  0  0  0  0  0
    6.5192    4.1064    0.0000 O   0  0  0  0  0  0  0  0  0  0  0  0
    6.7150    5.5936    0.0000 C   0  0  0  0  0  0  0  0  0  0  0  0
  1  2  1  0
  3  2  1  1
  3  4  1  0
  4  5  1  0
  5  6  2  0
  5  7  1  0
  7  8  1  0
  8  9  1  1
  8 10  1  0
 10 11  1  6
 10 12  1  0
 12 13  1  1
 13 14  1  0
 14 15  1  0
 15 16  1  0
 16 17  1  0
 16 18  1  0
 18 19  1  0
 19 20  1  0
 20 21  1  0
 20 22  2  0
 18 23  1  0
 23 24  2  0
 23 25  1  0
 25 26  1  0
 26 27  1  0
 27 28  1  0
 27 29  2  0
 12 30  1  0
 30 31  1  1
 31 32  1  0
 32 33  1  0
 33 34  1  0
 32 35  1  0
 35 36  1  0
 30 37  1  0
 37 38  1  0
 38 39  1  1
 38 40  1  0
 40 41  2  0
 40 42  1  0
 42 43  2  0
 43 44  1  0
 44 45  1  0
 44 46  2  0
 46 47  1  0
 47 48  1  6
 48 49  1  0
 49 50  1  0
 50 51  1  0
 51 52  1  0
 52 53  1  0
 52 54  1  0
 54 55  1  0
 54 56  1  0
 56 57  1  0
 57 58  1  0
 56 59  1  0
 59 60  1  0
 60 61  1  0
 47  3  1  0
 59 50  1  0
 25 14  1  0
M  END
>  <ChEMBL_IDs>  (545) 
CHEMBL424098

>  <target_organism>  (545) 
Rattus norvegicus

>  <target_molecule_pref_name>  (545) 
nan

>  <# Known Targets>  (545) 
nan

>  <Known Targets>  (545) 
nan

>  <smiles>  (545) 
CC[C@H]1OC(=O)C[C@@H](O)[C@H](C)[C@@H](OC2OC(C)C(OC(C)=O)C(=O)C2OC(C)=O)[C@@H](CC(OC)OC)C[C@@H](C)C(=O)/C=C/C(C)=C/[C@@H]1COC1OC(C)C(O)C(OC)C1OC

$$$$

     RDKit          2D

 59 61  0  0  0  0  0  0  0  0999 V2000
    6.0944   -3.8971    0.0000 C   0  0  0  0  0  0  0  0  0  0  0  0
    5.3444   -2.5981    0.0000 C   0  0  0  0  0  0  0  0  0  0  0  0
    6.0944   -1.2990    0.0000 C   0  0  0  0  0  0  0  0  0  0  0  0
    7.5944   -1.2990    0.0000 O   0  0  0  0  0  0  0  0  0  0  0  0
    5.3444   -0.0000    0.0000 O   0  0  0  0  0  0  0  0  0  0  0  0
    3.8444    0.0000    0.0000 C   0  0  0  0  0  0  0  0  0  0  0  0
    3.5517   -1.4712    0.0000 C   0  0  0  0  0  0  0  0  0  0  0  0
    2.7184   -2.7184    0.0000 C   0  0  0  0  0  0  0  0  0  0  0  0
    3.7790   -3.7790    0.0000 O   0  0  0  0  0  0  0  0  0  0  0  0
    1.4712   -3.5517    0.0000 O   0  0  0  0  0  0  0  0  0  0  0  0
   -0.0000   -3.8444    0.0000 C   0  0  0  0  0  0  0  0  0  0  0  0
   -0.0000   -5.3444    0.0000 C   0  0  0  0  0  0  0  0  0  0  0  0
   -1.4712   -3.5517    0.0000 C   0  0  0  0  0  0  0  0  0  0  0  0
   -2.7184   -2.7184    0.0000 C   0  0  0  0  0  0  0  0  0  0  0  0
   -3.5517   -1.4712    0.0000 C   0  0  0  0  0  0  0  0  0  0  0  0
   -3.8444    0.0000    0.0000 C   0  0  0  0  0  0  0  0  0  0  0  0
   -3.5517    1.4712    0.0000 C   0  0  0  0  0  0  0  0  0  0  0  0
   -2.7184    2.7184    0.0000 C   0  0  0  0  0  0  0  0  0  0  0  0
   -3.7790    3.7790    0.0000 O   0  0  0  0  0  0  0  0  0  0  0  0
   -1.4712    3.5517    0.0000 C   0  0  0  0  0  0  0  0  0  0  0  0
   -2.0452    4.9376    0.0000 C   0  0  0  0  0  0  0  0  0  0  0  0
    0.0000    3.8444    0.0000 C   0  0  0  0  0  0  0  0  0  0  0  0
    1.4712    3.5517    0.0000 C   0  0  0  0  0  0  0  0  0  0  0  0
    2.0452    4.9376    0.0000 C   0  0  0  0  0  0  0  0  0  0  0  0
    3.5324    5.1333    0.0000 C   0  0  0  0  0  0  0  0  0  0  0  0
    4.1064    6.5192    0.0000 O   0  0  0  0  0  0  0  0  0  0  0  0
    2.7184    2.7184    0.0000 C   0  0  0  0  0  0  0  0  0  0  0  0
    3.7790    3.7790    0.0000 O   0  0  0  0  0  0  0  0  0  0  0  0
    5.2279    3.3908    0.0000 C   0  0  0  0  0  0  0  0  0  0  0  0
    5.6162    1.9419    0.0000 O   0  0  0  0  0  0  0  0  0  0  0  0
    7.0650    1.5537    0.0000 C   0  0  0  0  0  0  0  0  0  0  0  0
    7.4533    0.1048    0.0000 C   0  0  0  0  0  0  0  0  0  0  0  0
    8.1257    2.6144    0.0000 C   0  0  0  0  0  0  0  0  0  0  0  0
    9.5746    2.2261    0.0000 O   0  0  0  0  0  0  0  0  0  0  0  0
    9.9628    0.7772    0.0000 C   0  0  0  0  0  0  0  0  0  0  0  0
   11.4117    0.3890    0.0000 C   0  0  0  0  0  0  0  0  0  0  0  0
   11.7999   -1.0599    0.0000 C   0  0  0  0  0  0  0  0  0  0  0  0
   12.6603   -2.2886    0.0000 C   0  0  0  0  0  0  0  0  0  0  0  0
   13.1594   -0.4260    0.0000 O   0  0  0  0  0  0  0  0  0  0  0  0
   10.7393   -2.1205    0.0000 C   0  0  0  0  0  0  0  0  0  0  0  0
   11.1275   -3.5694    0.0000 O   0  0  0  0  0  0  0  0  0  0  0  0
   10.0669   -4.6301    0.0000 C   0  0  0  0  0  0  0  0  0  0  0  0
    8.6180   -4.2419    0.0000 O   0  0  0  0  0  0  0  0  0  0  0  0
   10.4551   -6.0790    0.0000 C   0  0  0  0  0  0  0  0  0  0  0  0
    9.3944   -7.1396    0.0000 C   0  0  0  0  0  0  0  0  0  0  0  0
    9.7826   -8.5885    0.0000 C   0  0  0  0  0  0  0  0  0  0  0  0
    7.9455   -6.7514    0.0000 C   0  0  0  0  0  0  0  0  0  0  0  0
    9.2904   -1.7323    0.0000 C   0  0  0  0  0  0  0  0  0  0  0  0
    8.2297   -2.7930    0.0000 C   0  0  0  0  0  0  0  0  0  0  0  0
    8.9022   -0.2834    0.0000 O   0  0  0  0  0  0  0  0  0  0  0  0
    7.7375    4.0632    0.0000 C   0  0  0  0  0  0  0  0  0  0  0  0
    8.7981    5.1239    0.0000 N   0  0  0  0  0  0  0  0  0  0  0  0
   10.2470    4.7357    0.0000 C   0  0  0  0  0  0  0  0  0  0  0  0
    8.4099    6.5728    0.0000 C   0  0  0  0  0  0  0  0  0  0  0  0
    6.2886    4.4515    0.0000 C   0  0  0  0  0  0  0  0  0  0  0  0
    5.9004    5.9004    0.0000 O   0  0  0  0  0  0  0  0  0  0  0  0
    3.5517    1.4712    0.0000 C   0  0  0  0  0  0  0  0  0  0  0  0
    4.9376    2.0452    0.0000 O   0  0  0  0  0  0  0  0  0  0  0  0
    6.1276    1.1321    0.0000 C   0  0  0  0  0  0  0  0  0  0  0  0
  1  2  1  0
  2  3  1  0
  3  4  2  0
  3  5  1  0
  5  6  1  0
  6  7  1  0
  7  8  1  0
  8  9  2  0
  8 10  1  0
 10 11  1  0
 11 12  1  0
 11 13  1  0
 13 14  1  0
 14 15  2  0
 15 16  1  0
 16 17  2  0
 17 18  1  0
 18 19  2  0
 18 20  1  0
 20 21  1  0
 20 22  1  0
 22 23  1  0
 23 24  1  0
 24 25  1  0
 25 26  2  0
 23 27  1  0
 27 28  1  0
 28 29  1  0
 29 30  1  0
 30 31  1  0
 31 32  1  0
 31 33  1  0
 33 34  1  0
 34 35  1  0
 35 36  1  0
 36 37  1  0
 37 38  1  0
 37 39  1  0
 37 40  1  0
 40 41  1  0
 41 42  1  0
 42 43  2  0
 42 44  1  0
 44 45  1  0
 45 46  1  0
 45 47  1  0
 40 48  1  0
 48 49  1  0
 48 50  1  0
 33 51  1  0
 51 52  1  0
 52 53  1  0
 52 54  1  0
 51 55  1  0
 55 56  1  0
 27 57  1  0
 57 58  1  0
 58 59  1  0
 57  6  1  0
 55 29  1  0
 50 35  1  0
M  END
>  <ChEMBL_IDs>  (546) 
nan

>  <target_organism>  (546) 
nan

>  <target_molecule_pref_name>  (546) 
nan

>  <# Known Targets>  (546) 
nan

>  <Known Targets>  (546) 
nan

>  <smiles>  (546) 
CCC(=O)OC1CC(=O)OC(C)C/C=C\C=C/C(=O)C(C)CC(CC=O)C(OC2OC(C)C(OC3CC(C)(O)C(OC(=O)CC(C)C)C(C)O3)C(N(C)C)C2O)C1OC

$$$$

     RDKit          2D

 59 61  0  0  0  0  0  0  0  0999 V2000
    6.0944   -3.8971    0.0000 C   0  0  0  0  0  0  0  0  0  0  0  0
    5.3444   -2.5981    0.0000 C   0  0  0  0  0  0  0  0  0  0  0  0
    6.0944   -1.2990    0.0000 C   0  0  0  0  0  0  0  0  0  0  0  0
    7.5944   -1.2990    0.0000 O   0  0  0  0  0  0  0  0  0  0  0  0
    5.3444   -0.0000    0.0000 O   0  0  0  0  0  0  0  0  0  0  0  0
    3.8444    0.0000    0.0000 C   0  0  0  0  0  0  0  0  0  0  0  0
    3.5517   -1.4712    0.0000 C   0  0  0  0  0  0  0  0  0  0  0  0
    2.7184   -2.7184    0.0000 C   0  0  0  0  0  0  0  0  0  0  0  0
    3.7790   -3.7790    0.0000 O   0  0  0  0  0  0  0  0  0  0  0  0
    1.4712   -3.5517    0.0000 O   0  0  0  0  0  0  0  0  0  0  0  0
   -0.0000   -3.8444    0.0000 C   0  0  0  0  0  0  0  0  0  0  0  0
   -0.0000   -5.3444    0.0000 C   0  0  0  0  0  0  0  0  0  0  0  0
   -1.4712   -3.5517    0.0000 C   0  0  0  0  0  0  0  0  0  0  0  0
   -2.7184   -2.7184    0.0000 C   0  0  0  0  0  0  0  0  0  0  0  0
   -3.5517   -1.4712    0.0000 C   0  0  0  0  0  0  0  0  0  0  0  0
   -3.8444    0.0000    0.0000 C   0  0  0  0  0  0  0  0  0  0  0  0
   -3.5517    1.4712    0.0000 C   0  0  0  0  0  0  0  0  0  0  0  0
   -2.7184    2.7184    0.0000 C   0  0  0  0  0  0  0  0  0  0  0  0
   -3.7790    3.7790    0.0000 O   0  0  0  0  0  0  0  0  0  0  0  0
   -1.4712    3.5517    0.0000 C   0  0  0  0  0  0  0  0  0  0  0  0
   -2.0452    4.9376    0.0000 C   0  0  0  0  0  0  0  0  0  0  0  0
    0.0000    3.8444    0.0000 C   0  0  0  0  0  0  0  0  0  0  0  0
    1.4712    3.5517    0.0000 C   0  0  0  0  0  0  0  0  0  0  0  0
    2.0452    4.9376    0.0000 C   0  0  0  0  0  0  0  0  0  0  0  0
    3.5324    5.1333    0.0000 C   0  0  0  0  0  0  0  0  0  0  0  0
    4.1064    6.5192    0.0000 O   0  0  0  0  0  0  0  0  0  0  0  0
    2.7184    2.7184    0.0000 C   0  0  0  0  0  0  0  0  0  0  0  0
    3.7790    3.7790    0.0000 O   0  0  0  0  0  0  0  0  0  0  0  0
    5.2279    3.3908    0.0000 C   0  0  0  0  0  0  0  0  0  0  0  0
    5.6162    1.9419    0.0000 O   0  0  0  0  0  0  0  0  0  0  0  0
    7.0650    1.5537    0.0000 C   0  0  0  0  0  0  0  0  0  0  0  0
    7.4533    0.1048    0.0000 C   0  0  0  0  0  0  0  0  0  0  0  0
    8.1257    2.6144    0.0000 C   0  0  0  0  0  0  0  0  0  0  0  0
    9.5746    2.2261    0.0000 O   0  0  0  0  0  0  0  0  0  0  0  0
    9.9628    0.7772    0.0000 C   0  0  0  0  0  0  0  0  0  0  0  0
   11.4117    0.3890    0.0000 C   0  0  0  0  0  0  0  0  0  0  0  0
   11.7999   -1.0599    0.0000 C   0  0  0  0  0  0  0  0  0  0  0  0
   12.6603   -2.2886    0.0000 C   0  0  0  0  0  0  0  0  0  0  0  0
   13.1594   -0.4260    0.0000 O   0  0  0  0  0  0  0  0  0  0  0  0
   10.7393   -2.1205    0.0000 C   0  0  0  0  0  0  0  0  0  0  0  0
   11.1275   -3.5694    0.0000 O   0  0  0  0  0  0  0  0  0  0  0  0
   10.0669   -4.6301    0.0000 C   0  0  0  0  0  0  0  0  0  0  0  0
    8.6180   -4.2419    0.0000 O   0  0  0  0  0  0  0  0  0  0  0  0
   10.4551   -6.0790    0.0000 C   0  0  0  0  0  0  0  0  0  0  0  0
    9.3944   -7.1396    0.0000 C   0  0  0  0  0  0  0  0  0  0  0  0
    9.7826   -8.5885    0.0000 C   0  0  0  0  0  0  0  0  0  0  0  0
    7.9455   -6.7514    0.0000 C   0  0  0  0  0  0  0  0  0  0  0  0
    9.2904   -1.7323    0.0000 C   0  0  0  0  0  0  0  0  0  0  0  0
    8.2297   -2.7930    0.0000 C   0  0  0  0  0  0  0  0  0  0  0  0
    8.9022   -0.2834    0.0000 O   0  0  0  0  0  0  0  0  0  0  0  0
    7.7375    4.0632    0.0000 C   0  0  0  0  0  0  0  0  0  0  0  0
    8.7981    5.1239    0.0000 N   0  0  0  0  0  0  0  0  0  0  0  0
   10.2470    4.7357    0.0000 C   0  0  0  0  0  0  0  0  0  0  0  0
    8.4099    6.5728    0.0000 C   0  0  0  0  0  0  0  0  0  0  0  0
    6.2886    4.4515    0.0000 C   0  0  0  0  0  0  0  0  0  0  0  0
    5.9004    5.9004    0.0000 O   0  0  0  0  0  0  0  0  0  0  0  0
    3.5517    1.4712    0.0000 C   0  0  0  0  0  0  0  0  0  0  0  0
    4.9376    2.0452    0.0000 O   0  0  0  0  0  0  0  0  0  0  0  0
    6.1276    1.1321    0.0000 C   0  0  0  0  0  0  0  0  0  0  0  0
  1  2  1  0
  2  3  1  0
  3  4  2  0
  3  5  1  0
  5  6  1  0
  6  7  1  0
  7  8  1  0
  8  9  2  0
  8 10  1  0
 10 11  1  0
 11 12  1  0
 11 13  1  0
 13 14  1  0
 14 15  2  0
 15 16  1  0
 16 17  2  0
 17 18  1  0
 18 19  2  0
 18 20  1  0
 20 21  1  0
 20 22  1  0
 22 23  1  0
 23 24  1  0
 24 25  1  0
 25 26  2  0
 23 27  1  0
 27 28  1  0
 28 29  1  0
 29 30  1  0
 30 31  1  0
 31 32  1  0
 31 33  1  0
 33 34  1  0
 34 35  1  0
 35 36  1  0
 36 37  1  0
 37 38  1  0
 37 39  1  0
 37 40  1  0
 40 41  1  0
 41 42  1  0
 42 43  2  0
 42 44  1  0
 44 45  1  0
 45 46  1  0
 45 47  1  0
 40 48  1  0
 48 49  1  0
 48 50  1  0
 33 51  1  0
 51 52  1  0
 52 53  1  0
 52 54  1  0
 51 55  1  0
 55 56  1  0
 27 57  1  0
 57 58  1  0
 58 59  1  0
 57  6  1  0
 55 29  1  0
 50 35  1  0
M  END
>  <ChEMBL_IDs>  (547) 
nan

>  <target_organism>  (547) 
nan

>  <target_molecule_pref_name>  (547) 
nan

>  <# Known Targets>  (547) 
nan

>  <Known Targets>  (547) 
nan

>  <smiles>  (547) 
CCC(=O)OC1CC(=O)OC(C)C/C=C\C=C/C(=O)C(C)CC(CC=O)C(OC2OC(C)C(OC3CC(C)(O)C(OC(=O)CC(C)C)C(C)O3)C(N(C)C)C2O)C1OC

$$$$

     RDKit          2D

 59 61  0  0  0  0  0  0  0  0999 V2000
    6.0944   -3.8971    0.0000 C   0  0  0  0  0  0  0  0  0  0  0  0
    5.3444   -2.5981    0.0000 C   0  0  0  0  0  0  0  0  0  0  0  0
    6.0944   -1.2990    0.0000 C   0  0  0  0  0  0  0  0  0  0  0  0
    7.5944   -1.2990    0.0000 O   0  0  0  0  0  0  0  0  0  0  0  0
    5.3444   -0.0000    0.0000 O   0  0  0  0  0  0  0  0  0  0  0  0
    3.8444    0.0000    0.0000 C   0  0  0  0  0  0  0  0  0  0  0  0
    3.5517   -1.4712    0.0000 C   0  0  0  0  0  0  0  0  0  0  0  0
    2.7184   -2.7184    0.0000 C   0  0  0  0  0  0  0  0  0  0  0  0
    3.7790   -3.7790    0.0000 O   0  0  0  0  0  0  0  0  0  0  0  0
    1.4712   -3.5517    0.0000 O   0  0  0  0  0  0  0  0  0  0  0  0
   -0.0000   -3.8444    0.0000 C   0  0  0  0  0  0  0  0  0  0  0  0
   -0.0000   -5.3444    0.0000 C   0  0  0  0  0  0  0  0  0  0  0  0
   -1.4712   -3.5517    0.0000 C   0  0  0  0  0  0  0  0  0  0  0  0
   -2.7184   -2.7184    0.0000 C   0  0  0  0  0  0  0  0  0  0  0  0
   -3.5517   -1.4712    0.0000 C   0  0  0  0  0  0  0  0  0  0  0  0
   -3.8444    0.0000    0.0000 C   0  0  0  0  0  0  0  0  0  0  0  0
   -3.5517    1.4712    0.0000 C   0  0  0  0  0  0  0  0  0  0  0  0
   -2.7184    2.7184    0.0000 C   0  0  0  0  0  0  0  0  0  0  0  0
   -3.7790    3.7790    0.0000 O   0  0  0  0  0  0  0  0  0  0  0  0
   -1.4712    3.5517    0.0000 C   0  0  0  0  0  0  0  0  0  0  0  0
   -2.0452    4.9376    0.0000 C   0  0  0  0  0  0  0  0  0  0  0  0
    0.0000    3.8444    0.0000 C   0  0  0  0  0  0  0  0  0  0  0  0
    1.4712    3.5517    0.0000 C   0  0  0  0  0  0  0  0  0  0  0  0
    2.0452    4.9376    0.0000 C   0  0  0  0  0  0  0  0  0  0  0  0
    3.5324    5.1333    0.0000 C   0  0  0  0  0  0  0  0  0  0  0  0
    4.1064    6.5192    0.0000 O   0  0  0  0  0  0  0  0  0  0  0  0
    2.7184    2.7184    0.0000 C   0  0  0  0  0  0  0  0  0  0  0  0
    3.7790    3.7790    0.0000 O   0  0  0  0  0  0  0  0  0  0  0  0
    5.2279    3.3908    0.0000 C   0  0  0  0  0  0  0  0  0  0  0  0
    5.6162    1.9419    0.0000 O   0  0  0  0  0  0  0  0  0  0  0  0
    7.0650    1.5537    0.0000 C   0  0  0  0  0  0  0  0  0  0  0  0
    7.4533    0.1048    0.0000 C   0  0  0  0  0  0  0  0  0  0  0  0
    8.1257    2.6144    0.0000 C   0  0  0  0  0  0  0  0  0  0  0  0
    9.5746    2.2261    0.0000 O   0  0  0  0  0  0  0  0  0  0  0  0
    9.9628    0.7772    0.0000 C   0  0  0  0  0  0  0  0  0  0  0  0
   11.4117    0.3890    0.0000 C   0  0  0  0  0  0  0  0  0  0  0  0
   11.7999   -1.0599    0.0000 C   0  0  0  0  0  0  0  0  0  0  0  0
   12.6603   -2.2886    0.0000 C   0  0  0  0  0  0  0  0  0  0  0  0
   13.1594   -0.4260    0.0000 O   0  0  0  0  0  0  0  0  0  0  0  0
   10.7393   -2.1205    0.0000 C   0  0  0  0  0  0  0  0  0  0  0  0
   11.1275   -3.5694    0.0000 O   0  0  0  0  0  0  0  0  0  0  0  0
   10.0669   -4.6301    0.0000 C   0  0  0  0  0  0  0  0  0  0  0  0
    8.6180   -4.2419    0.0000 O   0  0  0  0  0  0  0  0  0  0  0  0
   10.4551   -6.0790    0.0000 C   0  0  0  0  0  0  0  0  0  0  0  0
    9.3944   -7.1396    0.0000 C   0  0  0  0  0  0  0  0  0  0  0  0
    9.7826   -8.5885    0.0000 C   0  0  0  0  0  0  0  0  0  0  0  0
    7.9455   -6.7514    0.0000 C   0  0  0  0  0  0  0  0  0  0  0  0
    9.2904   -1.7323    0.0000 C   0  0  0  0  0  0  0  0  0  0  0  0
    8.2297   -2.7930    0.0000 C   0  0  0  0  0  0  0  0  0  0  0  0
    8.9022   -0.2834    0.0000 O   0  0  0  0  0  0  0  0  0  0  0  0
    7.7375    4.0632    0.0000 C   0  0  0  0  0  0  0  0  0  0  0  0
    8.7981    5.1239    0.0000 N   0  0  0  0  0  0  0  0  0  0  0  0
   10.2470    4.7357    0.0000 C   0  0  0  0  0  0  0  0  0  0  0  0
    8.4099    6.5728    0.0000 C   0  0  0  0  0  0  0  0  0  0  0  0
    6.2886    4.4515    0.0000 C   0  0  0  0  0  0  0  0  0  0  0  0
    5.9004    5.9004    0.0000 O   0  0  0  0  0  0  0  0  0  0  0  0
    3.5517    1.4712    0.0000 C   0  0  0  0  0  0  0  0  0  0  0  0
    4.9376    2.0452    0.0000 O   0  0  0  0  0  0  0  0  0  0  0  0
    6.1276    1.1321    0.0000 C   0  0  0  0  0  0  0  0  0  0  0  0
  1  2  1  0
  2  3  1  0
  3  4  2  0
  3  5  1  0
  5  6  1  0
  6  7  1  0
  7  8  1  0
  8  9  2  0
  8 10  1  0
 10 11  1  0
 11 12  1  0
 11 13  1  0
 13 14  1  0
 14 15  2  0
 15 16  1  0
 16 17  2  0
 17 18  1  0
 18 19  2  0
 18 20  1  0
 20 21  1  0
 20 22  1  0
 22 23  1  0
 23 24  1  0
 24 25  1  0
 25 26  2  0
 23 27  1  0
 27 28  1  0
 28 29  1  0
 29 30  1  0
 30 31  1  0
 31 32  1  0
 31 33  1  0
 33 34  1  0
 34 35  1  0
 35 36  1  0
 36 37  1  0
 37 38  1  0
 37 39  1  0
 37 40  1  0
 40 41  1  0
 41 42  1  0
 42 43  2  0
 42 44  1  0
 44 45  1  0
 45 46  1  0
 45 47  1  0
 40 48  1  0
 48 49  1  0
 48 50  1  0
 33 51  1  0
 51 52  1  0
 52 53  1  0
 52 54  1  0
 51 55  1  0
 55 56  1  0
 27 57  1  0
 57 58  1  0
 58 59  1  0
 57  6  1  0
 55 29  1  0
 50 35  1  0
M  END
>  <ChEMBL_IDs>  (548) 
nan

>  <target_organism>  (548) 
nan

>  <target_molecule_pref_name>  (548) 
nan

>  <# Known Targets>  (548) 
nan

>  <Known Targets>  (548) 
nan

>  <smiles>  (548) 
CCC(=O)OC1CC(=O)OC(C)C/C=C\C=C/C(=O)C(C)CC(CC=O)C(OC2OC(C)C(OC3CC(C)(O)C(OC(=O)CC(C)C)C(C)O3)C(N(C)C)C2O)C1OC

$$$$

     RDKit          2D

 60 62  0  0  0  0  0  0  0  0999 V2000
    6.0944   -3.8971    0.0000 C   0  0  0  0  0  0  0  0  0  0  0  0
    5.3444   -2.5981    0.0000 C   0  0  0  0  0  0  0  0  0  0  0  0
    6.0944   -1.2990    0.0000 C   0  0  0  0  0  0  0  0  0  0  0  0
    7.5944   -1.2990    0.0000 O   0  0  0  0  0  0  0  0  0  0  0  0
    5.3444   -0.0000    0.0000 O   0  0  0  0  0  0  0  0  0  0  0  0
    3.8444    0.0000    0.0000 C   0  0  0  0  0  0  0  0  0  0  0  0
    3.5517   -1.4712    0.0000 C   0  0  0  0  0  0  0  0  0  0  0  0
    2.7184   -2.7184    0.0000 C   0  0  0  0  0  0  0  0  0  0  0  0
    3.7790   -3.7790    0.0000 O   0  0  0  0  0  0  0  0  0  0  0  0
    1.4712   -3.5517    0.0000 O   0  0  0  0  0  0  0  0  0  0  0  0
   -0.0000   -3.8444    0.0000 C   0  0  0  0  0  0  0  0  0  0  0  0
   -0.0000   -5.3444    0.0000 C   0  0  0  0  0  0  0  0  0  0  0  0
   -1.4712   -3.5517    0.0000 C   0  0  0  0  0  0  0  0  0  0  0  0
   -2.7184   -2.7184    0.0000 C   0  0  0  0  0  0  0  0  0  0  0  0
   -3.5517   -1.4712    0.0000 C   0  0  0  0  0  0  0  0  0  0  0  0
   -3.8444    0.0000    0.0000 C   0  0  0  0  0  0  0  0  0  0  0  0
   -3.5517    1.4712    0.0000 C   0  0  0  0  0  0  0  0  0  0  0  0
   -2.7184    2.7184    0.0000 C   0  0  0  0  0  0  0  0  0  0  0  0
   -3.7790    3.7790    0.0000 O   0  0  0  0  0  0  0  0  0  0  0  0
   -5.2279    3.3908    0.0000 C   0  0  0  0  0  0  0  0  0  0  0  0
   -6.2886    4.4515    0.0000 C   0  0  0  0  0  0  0  0  0  0  0  0
   -5.6162    1.9419    0.0000 O   0  0  0  0  0  0  0  0  0  0  0  0
   -1.4712    3.5517    0.0000 C   0  0  0  0  0  0  0  0  0  0  0  0
   -2.0452    4.9376    0.0000 C   0  0  0  0  0  0  0  0  0  0  0  0
    0.0000    3.8444    0.0000 C   0  0  0  0  0  0  0  0  0  0  0  0
    1.4712    3.5517    0.0000 C   0  0  0  0  0  0  0  0  0  0  0  0
    2.0452    4.9376    0.0000 C   0  0  0  0  0  0  0  0  0  0  0  0
    3.5324    5.1333    0.0000 C   0  0  0  0  0  0  0  0  0  0  0  0
    4.1064    6.5192    0.0000 O   0  0  0  0  0  0  0  0  0  0  0  0
    2.7184    2.7184    0.0000 C   0  0  0  0  0  0  0  0  0  0  0  0
    3.7790    3.7790    0.0000 O   0  0  0  0  0  0  0  0  0  0  0  0
    5.2279    3.3908    0.0000 C   0  0  0  0  0  0  0  0  0  0  0  0
    5.6162    1.9419    0.0000 O   0  0  0  0  0  0  0  0  0  0  0  0
    7.0650    1.5537    0.0000 C   0  0  0  0  0  0  0  0  0  0  0  0
    7.4533    0.1048    0.0000 C   0  0  0  0  0  0  0  0  0  0  0  0
    8.1257    2.6144    0.0000 C   0  0  0  0  0  0  0  0  0  0  0  0
    9.5746    2.2261    0.0000 O   0  0  0  0  0  0  0  0  0  0  0  0
    9.9628    0.7772    0.0000 C   0  0  0  0  0  0  0  0  0  0  0  0
   11.4117    0.3890    0.0000 C   0  0  0  0  0  0  0  0  0  0  0  0
   11.7999   -1.0599    0.0000 C   0  0  0  0  0  0  0  0  0  0  0  0
   12.6603   -2.2886    0.0000 C   0  0  0  0  0  0  0  0  0  0  0  0
   13.1594   -0.4260    0.0000 O   0  0  0  0  0  0  0  0  0  0  0  0
   10.7393   -2.1205    0.0000 C   0  0  0  0  0  0  0  0  0  0  0  0
   11.1275   -3.5694    0.0000 O   0  0  0  0  0  0  0  0  0  0  0  0
   10.0669   -4.6301    0.0000 C   0  0  0  0  0  0  0  0  0  0  0  0
    8.6180   -4.2419    0.0000 O   0  0  0  0  0  0  0  0  0  0  0  0
   10.4551   -6.0790    0.0000 C   0  0  0  0  0  0  0  0  0  0  0  0
    9.3944   -7.1396    0.0000 C   0  0  0  0  0  0  0  0  0  0  0  0
    9.2904   -1.7323    0.0000 C   0  0  0  0  0  0  0  0  0  0  0  0
    8.2297   -2.7930    0.0000 C   0  0  0  0  0  0  0  0  0  0  0  0
    8.9022   -0.2834    0.0000 O   0  0  0  0  0  0  0  0  0  0  0  0
    7.7375    4.0632    0.0000 C   0  0  0  0  0  0  0  0  0  0  0  0
    8.7981    5.1239    0.0000 N   0  0  0  0  0  0  0  0  0  0  0  0
    8.4099    6.5728    0.0000 C   0  0  0  0  0  0  0  0  0  0  0  0
   10.2470    4.7357    0.0000 C   0  0  0  0  0  0  0  0  0  0  0  0
    6.2886    4.4515    0.0000 C   0  0  0  0  0  0  0  0  0  0  0  0
    5.9004    5.9004    0.0000 O   0  0  0  0  0  0  0  0  0  0  0  0
    3.5517    1.4712    0.0000 C   0  0  0  0  0  0  0  0  0  0  0  0
    4.9376    2.0452    0.0000 O   0  0  0  0  0  0  0  0  0  0  0  0
    6.1276    1.1321    0.0000 C   0  0  0  0  0  0  0  0  0  0  0  0
  1  2  1  0
  2  3  1  0
  3  4  2  0
  3  5  1  0
  5  6  1  0
  6  7  1  0
  7  8  1  0
  8  9  2  0
  8 10  1  0
 10 11  1  0
 11 12  1  0
 11 13  1  0
 13 14  1  0
 14 15  2  0
 15 16  1  0
 16 17  2  0
 17 18  1  0
 18 19  1  0
 19 20  1  0
 20 21  1  0
 20 22  2  0
 18 23  1  0
 23 24  1  0
 23 25  1  0
 25 26  1  0
 26 27  1  0
 27 28  1  0
 28 29  2  0
 26 30  1  0
 30 31  1  0
 31 32  1  0
 32 33  1  0
 33 34  1  0
 34 35  1  0
 34 36  1  0
 36 37  1  0
 37 38  1  0
 38 39  1  0
 39 40  1  0
 40 41  1  0
 40 42  1  0
 40 43  1  0
 43 44  1  0
 44 45  1  0
 45 46  2  0
 45 47  1  0
 47 48  1  0
 43 49  1  0
 49 50  1  0
 49 51  1  0
 36 52  1  0
 52 53  1  0
 53 54  1  0
 53 55  1  0
 52 56  1  0
 56 57  1  0
 30 58  1  0
 58 59  1  0
 59 60  1  0
 58  6  1  0
 56 32  1  0
 51 38  1  0
M  END
>  <ChEMBL_IDs>  (549) 
nan

>  <target_organism>  (549) 
nan

>  <target_molecule_pref_name>  (549) 
nan

>  <# Known Targets>  (549) 
nan

>  <Known Targets>  (549) 
nan

>  <smiles>  (549) 
CCC(=O)OC1CC(=O)OC(C)C/C=C/C=C/C(OC(C)=O)C(C)CC(CC=O)C(OC2OC(C)C(OC3CC(C)(O)C(OC(=O)CC)C(C)O3)C(N(C)C)C2O)C1OC

$$$$

     RDKit          2D

 60 62  0  0  0  0  0  0  0  0999 V2000
   -1.6153  -11.9856    0.0000 C   0  0  0  0  0  0  0  0  0  0  0  0
   -0.4252  -11.0724    0.0000 C   0  0  0  0  0  0  0  0  0  0  0  0
    0.9606  -11.6464    0.0000 O   0  0  0  0  0  0  0  0  0  0  0  0
    2.1506  -10.7333    0.0000 C   0  0  0  0  0  0  0  0  0  0  0  0
    1.9548   -9.2461    0.0000 C   0  0  0  0  0  0  0  0  0  0  0  0
    0.5690   -8.6721    0.0000 C   0  0  0  0  0  0  0  0  0  0  0  0
    3.1449   -8.3330    0.0000 O   0  0  0  0  0  0  0  0  0  0  0  0
    4.5307   -8.9070    0.0000 C   0  0  0  0  0  0  0  0  0  0  0  0
    5.7207   -7.9939    0.0000 O   0  0  0  0  0  0  0  0  0  0  0  0
    5.5249   -6.5067    0.0000 C   0  0  0  0  0  0  0  0  0  0  0  0
    6.7150   -5.5936    0.0000 C   0  0  0  0  0  0  0  0  0  0  0  0
    8.1008   -6.1676    0.0000 C   0  0  0  0  0  0  0  0  0  0  0  0
    6.5192   -4.1064    0.0000 O   0  0  0  0  0  0  0  0  0  0  0  0
    5.1333   -3.5324    0.0000 C   0  0  0  0  0  0  0  0  0  0  0  0
    4.9376   -2.0452    0.0000 O   0  0  0  0  0  0  0  0  0  0  0  0
    6.1276   -1.1321    0.0000 C   0  0  0  0  0  0  0  0  0  0  0  0
    7.2553   -2.1211    0.0000 C   0  0  0  0  0  0  0  0  0  0  0  0
    6.5053   -3.4201    0.0000 C   0  0  0  0  0  0  0  0  0  0  0  0
    5.0053   -3.4201    0.0000 C   0  0  0  0  0  0  0  0  0  0  0  0
    3.9633   -4.4991    0.0000 O   0  0  0  0  0  0  0  0  0  0  0  0
    8.6757   -2.6032    0.0000 C   0  0  0  0  0  0  0  0  0  0  0  0
   10.1725   -2.5051    0.0000 C   0  0  0  0  0  0  0  0  0  0  0  0
   10.5608   -3.9540    0.0000 C   0  0  0  0  0  0  0  0  0  0  0  0
   11.5178   -1.8417    0.0000 C   0  0  0  0  0  0  0  0  0  0  0  0
   12.4310   -3.0317    0.0000 O   0  0  0  0  0  0  0  0  0  0  0  0
   13.9181   -2.8359    0.0000 C   0  0  0  0  0  0  0  0  0  0  0  0
   14.8313   -4.0260    0.0000 C   0  0  0  0  0  0  0  0  0  0  0  0
   14.4922   -1.4501    0.0000 O   0  0  0  0  0  0  0  0  0  0  0  0
   12.5069   -0.7139    0.0000 C   0  0  0  0  0  0  0  0  0  0  0  0
   12.9890    0.7065    0.0000 C   0  0  0  0  0  0  0  0  0  0  0  0
   12.8909    2.2032    0.0000 C   0  0  0  0  0  0  0  0  0  0  0  0
   12.2275    3.5486    0.0000 C   0  0  0  0  0  0  0  0  0  0  0  0
   11.0997    4.5376    0.0000 C   0  0  0  0  0  0  0  0  0  0  0  0
    9.6793    5.0197    0.0000 C   0  0  0  0  0  0  0  0  0  0  0  0
    9.8751    6.5069    0.0000 C   0  0  0  0  0  0  0  0  0  0  0  0
    8.1825    4.9216    0.0000 O   0  0  0  0  0  0  0  0  0  0  0  0
    6.8372    4.2582    0.0000 C   0  0  0  0  0  0  0  0  0  0  0  0
    5.9241    5.4482    0.0000 O   0  0  0  0  0  0  0  0  0  0  0  0
    5.8482    3.1304    0.0000 C   0  0  0  0  0  0  0  0  0  0  0  0
    5.3660    1.7100    0.0000 C   0  0  0  0  0  0  0  0  0  0  0  0
    3.8789    1.9058    0.0000 O   0  0  0  0  0  0  0  0  0  0  0  0
    5.4642    0.2132    0.0000 C   0  0  0  0  0  0  0  0  0  0  0  0
    4.0153   -0.1750    0.0000 O   0  0  0  0  0  0  0  0  0  0  0  0
    2.9546    0.8857    0.0000 C   0  0  0  0  0  0  0  0  0  0  0  0
    3.9433   -4.4455    0.0000 C   0  0  0  0  0  0  0  0  0  0  0  0
    2.5575   -3.8715    0.0000 O   0  0  0  0  0  0  0  0  0  0  0  0
    2.3617   -2.3843    0.0000 C   0  0  0  0  0  0  0  0  0  0  0  0
    0.9759   -1.8103    0.0000 C   0  0  0  0  0  0  0  0  0  0  0  0
    3.5517   -1.4712    0.0000 O   0  0  0  0  0  0  0  0  0  0  0  0
    4.1391   -5.9327    0.0000 C   0  0  0  0  0  0  0  0  0  0  0  0
    2.9491   -6.8458    0.0000 N   0  0  0  0  0  0  0  0  0  0  0  0
    2.7792   -8.3362    0.0000 C   0  0  0  0  0  0  0  0  0  0  0  0
    1.5633   -6.2718    0.0000 C   0  0  0  0  0  0  0  0  0  0  0  0
    4.7265  -10.3942    0.0000 C   0  0  0  0  0  0  0  0  0  0  0  0
    3.5364  -11.3073    0.0000 C   0  0  0  0  0  0  0  0  0  0  0  0
    4.6424  -12.3207    0.0000 C   0  0  0  0  0  0  0  0  0  0  0  0
    2.7305  -12.5724    0.0000 O   0  0  0  0  0  0  0  0  0  0  0  0
    3.4231  -13.9029    0.0000 C   0  0  0  0  0  0  0  0  0  0  0  0
    2.6172  -15.1680    0.0000 C   0  0  0  0  0  0  0  0  0  0  0  0
    4.9217  -13.9684    0.0000 O   0  0  0  0  0  0  0  0  0  0  0  0
  1  2  1  0
  2  3  1  0
  3  4  1  0
  4  5  1  0
  5  6  1  0
  5  7  1  0
  7  8  1  0
  8  9  1  0
  9 10  1  0
 10 11  1  0
 11 12  1  0
 11 13  1  0
 13 14  1  0
 14 15  1  0
 15 16  1  0
 16 17  1  0
 17 18  1  0
 18 19  1  0
 19 20  2  0
 17 21  1  0
 21 22  1  0
 22 23  1  0
 22 24  1  0
 24 25  1  0
 25 26  1  0
 26 27  1  0
 26 28  2  0
 24 29  1  0
 29 30  2  0
 30 31  1  0
 31 32  2  0
 32 33  1  0
 33 34  1  0
 34 35  1  0
 34 36  1  0
 36 37  1  0
 37 38  2  0
 37 39  1  0
 39 40  1  0
 40 41  1  0
 40 42  1  0
 42 43  1  0
 43 44  1  0
 14 45  1  0
 45 46  1  0
 46 47  1  0
 47 48  1  0
 47 49  2  0
 45 50  1  0
 50 51  1  0
 51 52  1  0
 51 53  1  0
  8 54  1  0
 54 55  1  0
 55 56  1  0
 55 57  1  0
 57 58  1  0
 58 59  1  0
 58 60  2  0
 55  4  1  0
 50 10  1  0
 42 16  1  0
M  END
>  <ChEMBL_IDs>  (550) 
nan

>  <target_organism>  (550) 
nan

>  <target_molecule_pref_name>  (550) 
nan

>  <# Known Targets>  (550) 
nan

>  <Known Targets>  (550) 
nan

>  <smiles>  (550) 
CCOC1C(C)OC(OC2C(C)OC(OC3C(CC=O)CC(C)C(OC(C)=O)/C=C\C=C/CC(C)OC(=O)CC(O)C3OC)C(OC(C)=O)C2N(C)C)CC1(C)OC(C)=O

$$$$

     RDKit          2D

 59 61  0  0  0  0  0  0  0  0999 V2000
    6.0944   -3.8971    0.0000 C   0  0  0  0  0  0  0  0  0  0  0  0
    5.3444   -2.5981    0.0000 C   0  0  0  0  0  0  0  0  0  0  0  0
    6.0944   -1.2990    0.0000 C   0  0  0  0  0  0  0  0  0  0  0  0
    7.5944   -1.2990    0.0000 O   0  0  0  0  0  0  0  0  0  0  0  0
    5.3444   -0.0000    0.0000 O   0  0  0  0  0  0  0  0  0  0  0  0
    3.8444    0.0000    0.0000 C   0  0  0  0  0  0  0  0  0  0  0  0
    3.5517   -1.4712    0.0000 C   0  0  0  0  0  0  0  0  0  0  0  0
    2.7184   -2.7184    0.0000 C   0  0  0  0  0  0  0  0  0  0  0  0
    3.7790   -3.7790    0.0000 O   0  0  0  0  0  0  0  0  0  0  0  0
    1.4712   -3.5517    0.0000 O   0  0  0  0  0  0  0  0  0  0  0  0
   -0.0000   -3.8444    0.0000 C   0  0  0  0  0  0  0  0  0  0  0  0
   -0.0000   -5.3444    0.0000 C   0  0  0  0  0  0  0  0  0  0  0  0
   -1.4712   -3.5517    0.0000 C   0  0  0  0  0  0  0  0  0  0  0  0
   -2.7184   -2.7184    0.0000 C   0  0  0  0  0  0  0  0  0  0  0  0
   -3.5517   -1.4712    0.0000 C   0  0  0  0  0  0  0  0  0  0  0  0
   -3.8444    0.0000    0.0000 C   0  0  0  0  0  0  0  0  0  0  0  0
   -3.5517    1.4712    0.0000 C   0  0  0  0  0  0  0  0  0  0  0  0
   -2.7184    2.7184    0.0000 C   0  0  0  0  0  0  0  0  0  0  0  0
   -3.7790    3.7790    0.0000 O   0  0  0  0  0  0  0  0  0  0  0  0
   -1.4712    3.5517    0.0000 C   0  0  0  0  0  0  0  0  0  0  0  0
   -2.0452    4.9376    0.0000 C   0  0  0  0  0  0  0  0  0  0  0  0
    0.0000    3.8444    0.0000 C   0  0  0  0  0  0  0  0  0  0  0  0
    1.4712    3.5517    0.0000 C   0  0  0  0  0  0  0  0  0  0  0  0
    2.0452    4.9376    0.0000 C   0  0  0  0  0  0  0  0  0  0  0  0
    3.5324    5.1333    0.0000 C   0  0  0  0  0  0  0  0  0  0  0  0
    4.1064    6.5192    0.0000 O   0  0  0  0  0  0  0  0  0  0  0  0
    2.7184    2.7184    0.0000 C   0  0  0  0  0  0  0  0  0  0  0  0
    3.7790    3.7790    0.0000 O   0  0  0  0  0  0  0  0  0  0  0  0
    5.2279    3.3908    0.0000 C   0  0  0  0  0  0  0  0  0  0  0  0
    5.6162    1.9419    0.0000 O   0  0  0  0  0  0  0  0  0  0  0  0
    7.0650    1.5537    0.0000 C   0  0  0  0  0  0  0  0  0  0  0  0
    7.4533    0.1048    0.0000 C   0  0  0  0  0  0  0  0  0  0  0  0
    8.1257    2.6144    0.0000 C   0  0  0  0  0  0  0  0  0  0  0  0
    9.5746    2.2261    0.0000 O   0  0  0  0  0  0  0  0  0  0  0  0
    9.9628    0.7772    0.0000 C   0  0  0  0  0  0  0  0  0  0  0  0
   11.4117    0.3890    0.0000 C   0  0  0  0  0  0  0  0  0  0  0  0
   11.7999   -1.0599    0.0000 C   0  0  0  0  0  0  0  0  0  0  0  0
   12.6603   -2.2886    0.0000 C   0  0  0  0  0  0  0  0  0  0  0  0
   13.1594   -0.4260    0.0000 O   0  0  0  0  0  0  0  0  0  0  0  0
   10.7393   -2.1205    0.0000 C   0  0  0  0  0  0  0  0  0  0  0  0
   11.1275   -3.5694    0.0000 O   0  0  0  0  0  0  0  0  0  0  0  0
   10.0669   -4.6301    0.0000 C   0  0  0  0  0  0  0  0  0  0  0  0
    8.6180   -4.2419    0.0000 O   0  0  0  0  0  0  0  0  0  0  0  0
   10.4551   -6.0790    0.0000 C   0  0  0  0  0  0  0  0  0  0  0  0
    9.3944   -7.1396    0.0000 C   0  0  0  0  0  0  0  0  0  0  0  0
    9.7826   -8.5885    0.0000 C   0  0  0  0  0  0  0  0  0  0  0  0
    7.9455   -6.7514    0.0000 C   0  0  0  0  0  0  0  0  0  0  0  0
    9.2904   -1.7323    0.0000 C   0  0  0  0  0  0  0  0  0  0  0  0
    8.2297   -2.7930    0.0000 C   0  0  0  0  0  0  0  0  0  0  0  0
    8.9022   -0.2834    0.0000 O   0  0  0  0  0  0  0  0  0  0  0  0
    7.7375    4.0632    0.0000 C   0  0  0  0  0  0  0  0  0  0  0  0
    8.7981    5.1239    0.0000 N   0  0  0  0  0  0  0  0  0  0  0  0
   10.2470    4.7357    0.0000 C   0  0  0  0  0  0  0  0  0  0  0  0
    8.4099    6.5728    0.0000 C   0  0  0  0  0  0  0  0  0  0  0  0
    6.2886    4.4515    0.0000 C   0  0  0  0  0  0  0  0  0  0  0  0
    5.9004    5.9004    0.0000 O   0  0  0  0  0  0  0  0  0  0  0  0
    3.5517    1.4712    0.0000 C   0  0  0  0  0  0  0  0  0  0  0  0
    4.9376    2.0452    0.0000 O   0  0  0  0  0  0  0  0  0  0  0  0
    6.1276    1.1321    0.0000 C   0  0  0  0  0  0  0  0  0  0  0  0
  1  2  1  0
  2  3  1  0
  3  4  2  0
  3  5  1  0
  5  6  1  0
  6  7  1  0
  7  8  1  0
  8  9  2  0
  8 10  1  0
 10 11  1  0
 11 12  1  0
 11 13  1  0
 13 14  1  0
 14 15  2  0
 15 16  1  0
 16 17  2  0
 17 18  1  0
 18 19  1  0
 18 20  1  0
 20 21  1  0
 20 22  1  0
 22 23  1  0
 23 24  1  0
 24 25  1  0
 25 26  2  0
 23 27  1  0
 27 28  1  0
 28 29  1  0
 29 30  1  0
 30 31  1  0
 31 32  1  0
 31 33  1  0
 33 34  1  0
 34 35  1  0
 35 36  1  0
 36 37  1  0
 37 38  1  0
 37 39  1  0
 37 40  1  0
 40 41  1  0
 41 42  1  0
 42 43  2  0
 42 44  1  0
 44 45  1  0
 45 46  1  0
 45 47  1  0
 40 48  1  0
 48 49  1  0
 48 50  1  0
 33 51  1  0
 51 52  1  0
 52 53  1  0
 52 54  1  0
 51 55  1  0
 55 56  1  0
 27 57  1  0
 57 58  1  0
 58 59  1  0
 57  6  1  0
 55 29  1  0
 50 35  1  0
M  END
>  <ChEMBL_IDs>  (551) 
nan

>  <target_organism>  (551) 
nan

>  <target_molecule_pref_name>  (551) 
nan

>  <# Known Targets>  (551) 
nan

>  <Known Targets>  (551) 
nan

>  <smiles>  (551) 
CCC(=O)OC1CC(=O)OC(C)C/C=C\C=C/C(O)C(C)CC(CC=O)C(OC2OC(C)C(OC3CC(C)(O)C(OC(=O)CC(C)C)C(C)O3)C(N(C)C)C2O)C1OC

$$$$

     RDKit          2D

 59 61  0  0  0  0  0  0  0  0999 V2000
    6.0944   -3.8971    0.0000 C   0  0  0  0  0  0  0  0  0  0  0  0
    5.3444   -2.5981    0.0000 C   0  0  0  0  0  0  0  0  0  0  0  0
    6.0944   -1.2990    0.0000 C   0  0  0  0  0  0  0  0  0  0  0  0
    7.5944   -1.2990    0.0000 O   0  0  0  0  0  0  0  0  0  0  0  0
    5.3444   -0.0000    0.0000 O   0  0  0  0  0  0  0  0  0  0  0  0
    3.8444    0.0000    0.0000 C   0  0  0  0  0  0  0  0  0  0  0  0
    3.5517   -1.4712    0.0000 C   0  0  0  0  0  0  0  0  0  0  0  0
    2.7184   -2.7184    0.0000 C   0  0  0  0  0  0  0  0  0  0  0  0
    3.7790   -3.7790    0.0000 O   0  0  0  0  0  0  0  0  0  0  0  0
    1.4712   -3.5517    0.0000 O   0  0  0  0  0  0  0  0  0  0  0  0
   -0.0000   -3.8444    0.0000 C   0  0  0  0  0  0  0  0  0  0  0  0
   -0.0000   -5.3444    0.0000 C   0  0  0  0  0  0  0  0  0  0  0  0
   -1.4712   -3.5517    0.0000 C   0  0  0  0  0  0  0  0  0  0  0  0
   -2.7184   -2.7184    0.0000 C   0  0  0  0  0  0  0  0  0  0  0  0
   -3.5517   -1.4712    0.0000 C   0  0  0  0  0  0  0  0  0  0  0  0
   -3.8444    0.0000    0.0000 C   0  0  0  0  0  0  0  0  0  0  0  0
   -3.5517    1.4712    0.0000 C   0  0  0  0  0  0  0  0  0  0  0  0
   -2.7184    2.7184    0.0000 C   0  0  0  0  0  0  0  0  0  0  0  0
   -3.7790    3.7790    0.0000 O   0  0  0  0  0  0  0  0  0  0  0  0
   -1.4712    3.5517    0.0000 C   0  0  0  0  0  0  0  0  0  0  0  0
   -2.0452    4.9376    0.0000 C   0  0  0  0  0  0  0  0  0  0  0  0
    0.0000    3.8444    0.0000 C   0  0  0  0  0  0  0  0  0  0  0  0
    1.4712    3.5517    0.0000 C   0  0  0  0  0  0  0  0  0  0  0  0
    2.0452    4.9376    0.0000 C   0  0  0  0  0  0  0  0  0  0  0  0
    3.5324    5.1333    0.0000 C   0  0  0  0  0  0  0  0  0  0  0  0
    4.1064    6.5192    0.0000 O   0  0  0  0  0  0  0  0  0  0  0  0
    2.7184    2.7184    0.0000 C   0  0  0  0  0  0  0  0  0  0  0  0
    3.7790    3.7790    0.0000 O   0  0  0  0  0  0  0  0  0  0  0  0
    5.2279    3.3908    0.0000 C   0  0  0  0  0  0  0  0  0  0  0  0
    5.6162    1.9419    0.0000 O   0  0  0  0  0  0  0  0  0  0  0  0
    7.0650    1.5537    0.0000 C   0  0  0  0  0  0  0  0  0  0  0  0
    7.4533    0.1048    0.0000 C   0  0  0  0  0  0  0  0  0  0  0  0
    8.1257    2.6144    0.0000 C   0  0  0  0  0  0  0  0  0  0  0  0
    9.5746    2.2261    0.0000 O   0  0  0  0  0  0  0  0  0  0  0  0
    9.9628    0.7772    0.0000 C   0  0  0  0  0  0  0  0  0  0  0  0
   11.4117    0.3890    0.0000 C   0  0  0  0  0  0  0  0  0  0  0  0
   11.7999   -1.0599    0.0000 C   0  0  0  0  0  0  0  0  0  0  0  0
   12.6603   -2.2886    0.0000 C   0  0  0  0  0  0  0  0  0  0  0  0
   13.1594   -0.4260    0.0000 O   0  0  0  0  0  0  0  0  0  0  0  0
   10.7393   -2.1205    0.0000 C   0  0  0  0  0  0  0  0  0  0  0  0
   11.1275   -3.5694    0.0000 O   0  0  0  0  0  0  0  0  0  0  0  0
   10.0669   -4.6301    0.0000 C   0  0  0  0  0  0  0  0  0  0  0  0
    8.6180   -4.2419    0.0000 O   0  0  0  0  0  0  0  0  0  0  0  0
   10.4551   -6.0790    0.0000 C   0  0  0  0  0  0  0  0  0  0  0  0
    9.3944   -7.1396    0.0000 C   0  0  0  0  0  0  0  0  0  0  0  0
    9.7826   -8.5885    0.0000 C   0  0  0  0  0  0  0  0  0  0  0  0
    7.9455   -6.7514    0.0000 C   0  0  0  0  0  0  0  0  0  0  0  0
    9.2904   -1.7323    0.0000 C   0  0  0  0  0  0  0  0  0  0  0  0
    8.2297   -2.7930    0.0000 C   0  0  0  0  0  0  0  0  0  0  0  0
    8.9022   -0.2834    0.0000 O   0  0  0  0  0  0  0  0  0  0  0  0
    7.7375    4.0632    0.0000 C   0  0  0  0  0  0  0  0  0  0  0  0
    8.7981    5.1239    0.0000 N   0  0  0  0  0  0  0  0  0  0  0  0
   10.2470    4.7357    0.0000 C   0  0  0  0  0  0  0  0  0  0  0  0
    8.4099    6.5728    0.0000 C   0  0  0  0  0  0  0  0  0  0  0  0
    6.2886    4.4515    0.0000 C   0  0  0  0  0  0  0  0  0  0  0  0
    5.9004    5.9004    0.0000 O   0  0  0  0  0  0  0  0  0  0  0  0
    3.5517    1.4712    0.0000 C   0  0  0  0  0  0  0  0  0  0  0  0
    4.9376    2.0452    0.0000 O   0  0  0  0  0  0  0  0  0  0  0  0
    6.1276    1.1321    0.0000 C   0  0  0  0  0  0  0  0  0  0  0  0
  1  2  1  0
  2  3  1  0
  3  4  2  0
  3  5  1  0
  5  6  1  0
  6  7  1  0
  7  8  1  0
  8  9  2  0
  8 10  1  0
 10 11  1  0
 11 12  1  0
 11 13  1  0
 13 14  1  0
 14 15  2  0
 15 16  1  0
 16 17  2  0
 17 18  1  0
 18 19  1  0
 18 20  1  0
 20 21  1  0
 20 22  1  0
 22 23  1  0
 23 24  1  0
 24 25  1  0
 25 26  2  0
 23 27  1  0
 27 28  1  0
 28 29  1  0
 29 30  1  0
 30 31  1  0
 31 32  1  0
 31 33  1  0
 33 34  1  0
 34 35  1  0
 35 36  1  0
 36 37  1  0
 37 38  1  0
 37 39  1  0
 37 40  1  0
 40 41  1  0
 41 42  1  0
 42 43  2  0
 42 44  1  0
 44 45  1  0
 45 46  1  0
 45 47  1  0
 40 48  1  0
 48 49  1  0
 48 50  1  0
 33 51  1  0
 51 52  1  0
 52 53  1  0
 52 54  1  0
 51 55  1  0
 55 56  1  0
 27 57  1  0
 57 58  1  0
 58 59  1  0
 57  6  1  0
 55 29  1  0
 50 35  1  0
M  END
>  <ChEMBL_IDs>  (552) 
nan

>  <target_organism>  (552) 
nan

>  <target_molecule_pref_name>  (552) 
nan

>  <# Known Targets>  (552) 
nan

>  <Known Targets>  (552) 
nan

>  <smiles>  (552) 
CCC(=O)OC1CC(=O)OC(C)C/C=C\C=C/C(O)C(C)CC(CC=O)C(OC2OC(C)C(OC3CC(C)(O)C(OC(=O)CC(C)C)C(C)O3)C(N(C)C)C2O)C1OC

$$$$

     RDKit          2D

 59 61  0  0  0  0  0  0  0  0999 V2000
    6.0944   -3.8971    0.0000 C   0  0  0  0  0  0  0  0  0  0  0  0
    5.3444   -2.5981    0.0000 C   0  0  0  0  0  0  0  0  0  0  0  0
    6.0944   -1.2990    0.0000 C   0  0  0  0  0  0  0  0  0  0  0  0
    7.5944   -1.2990    0.0000 O   0  0  0  0  0  0  0  0  0  0  0  0
    5.3444   -0.0000    0.0000 O   0  0  0  0  0  0  0  0  0  0  0  0
    3.8444    0.0000    0.0000 C   0  0  0  0  0  0  0  0  0  0  0  0
    3.5517   -1.4712    0.0000 C   0  0  0  0  0  0  0  0  0  0  0  0
    2.7184   -2.7184    0.0000 C   0  0  0  0  0  0  0  0  0  0  0  0
    3.7790   -3.7790    0.0000 O   0  0  0  0  0  0  0  0  0  0  0  0
    1.4712   -3.5517    0.0000 O   0  0  0  0  0  0  0  0  0  0  0  0
   -0.0000   -3.8444    0.0000 C   0  0  0  0  0  0  0  0  0  0  0  0
   -0.0000   -5.3444    0.0000 C   0  0  0  0  0  0  0  0  0  0  0  0
   -1.4712   -3.5517    0.0000 C   0  0  0  0  0  0  0  0  0  0  0  0
   -2.7184   -2.7184    0.0000 C   0  0  0  0  0  0  0  0  0  0  0  0
   -3.5517   -1.4712    0.0000 C   0  0  0  0  0  0  0  0  0  0  0  0
   -3.8444    0.0000    0.0000 C   0  0  0  0  0  0  0  0  0  0  0  0
   -3.5517    1.4712    0.0000 C   0  0  0  0  0  0  0  0  0  0  0  0
   -2.7184    2.7184    0.0000 C   0  0  0  0  0  0  0  0  0  0  0  0
   -3.7790    3.7790    0.0000 O   0  0  0  0  0  0  0  0  0  0  0  0
   -1.4712    3.5517    0.0000 C   0  0  0  0  0  0  0  0  0  0  0  0
   -2.0452    4.9376    0.0000 C   0  0  0  0  0  0  0  0  0  0  0  0
    0.0000    3.8444    0.0000 C   0  0  0  0  0  0  0  0  0  0  0  0
    1.4712    3.5517    0.0000 C   0  0  0  0  0  0  0  0  0  0  0  0
    2.0452    4.9376    0.0000 C   0  0  0  0  0  0  0  0  0  0  0  0
    3.5324    5.1333    0.0000 C   0  0  0  0  0  0  0  0  0  0  0  0
    4.1064    6.5192    0.0000 O   0  0  0  0  0  0  0  0  0  0  0  0
    2.7184    2.7184    0.0000 C   0  0  0  0  0  0  0  0  0  0  0  0
    3.7790    3.7790    0.0000 O   0  0  0  0  0  0  0  0  0  0  0  0
    5.2279    3.3908    0.0000 C   0  0  0  0  0  0  0  0  0  0  0  0
    5.6162    1.9419    0.0000 O   0  0  0  0  0  0  0  0  0  0  0  0
    7.0650    1.5537    0.0000 C   0  0  0  0  0  0  0  0  0  0  0  0
    7.4533    0.1048    0.0000 C   0  0  0  0  0  0  0  0  0  0  0  0
    8.1257    2.6144    0.0000 C   0  0  0  0  0  0  0  0  0  0  0  0
    9.5746    2.2261    0.0000 O   0  0  0  0  0  0  0  0  0  0  0  0
    9.9628    0.7772    0.0000 C   0  0  0  0  0  0  0  0  0  0  0  0
   11.4117    0.3890    0.0000 C   0  0  0  0  0  0  0  0  0  0  0  0
   11.7999   -1.0599    0.0000 C   0  0  0  0  0  0  0  0  0  0  0  0
   12.6603   -2.2886    0.0000 C   0  0  0  0  0  0  0  0  0  0  0  0
   13.1594   -0.4260    0.0000 O   0  0  0  0  0  0  0  0  0  0  0  0
   10.7393   -2.1205    0.0000 C   0  0  0  0  0  0  0  0  0  0  0  0
   11.1275   -3.5694    0.0000 O   0  0  0  0  0  0  0  0  0  0  0  0
   10.0669   -4.6301    0.0000 C   0  0  0  0  0  0  0  0  0  0  0  0
    8.6180   -4.2419    0.0000 O   0  0  0  0  0  0  0  0  0  0  0  0
   10.4551   -6.0790    0.0000 C   0  0  0  0  0  0  0  0  0  0  0  0
    9.3944   -7.1396    0.0000 C   0  0  0  0  0  0  0  0  0  0  0  0
    9.7826   -8.5885    0.0000 C   0  0  0  0  0  0  0  0  0  0  0  0
    7.9455   -6.7514    0.0000 C   0  0  0  0  0  0  0  0  0  0  0  0
    9.2904   -1.7323    0.0000 C   0  0  0  0  0  0  0  0  0  0  0  0
    8.2297   -2.7930    0.0000 C   0  0  0  0  0  0  0  0  0  0  0  0
    8.9022   -0.2834    0.0000 O   0  0  0  0  0  0  0  0  0  0  0  0
    7.7375    4.0632    0.0000 C   0  0  0  0  0  0  0  0  0  0  0  0
    8.7981    5.1239    0.0000 N   0  0  0  0  0  0  0  0  0  0  0  0
   10.2470    4.7357    0.0000 C   0  0  0  0  0  0  0  0  0  0  0  0
    8.4099    6.5728    0.0000 C   0  0  0  0  0  0  0  0  0  0  0  0
    6.2886    4.4515    0.0000 C   0  0  0  0  0  0  0  0  0  0  0  0
    5.9004    5.9004    0.0000 O   0  0  0  0  0  0  0  0  0  0  0  0
    3.5517    1.4712    0.0000 C   0  0  0  0  0  0  0  0  0  0  0  0
    4.9376    2.0452    0.0000 O   0  0  0  0  0  0  0  0  0  0  0  0
    6.1276    1.1321    0.0000 C   0  0  0  0  0  0  0  0  0  0  0  0
  1  2  1  0
  2  3  1  0
  3  4  2  0
  3  5  1  0
  5  6  1  0
  6  7  1  0
  7  8  1  0
  8  9  2  0
  8 10  1  0
 10 11  1  0
 11 12  1  0
 11 13  1  0
 13 14  1  0
 14 15  2  0
 15 16  1  0
 16 17  2  0
 17 18  1  0
 18 19  1  0
 18 20  1  0
 20 21  1  0
 20 22  1  0
 22 23  1  0
 23 24  1  0
 24 25  1  0
 25 26  2  0
 23 27  1  0
 27 28  1  0
 28 29  1  0
 29 30  1  0
 30 31  1  0
 31 32  1  0
 31 33  1  0
 33 34  1  0
 34 35  1  0
 35 36  1  0
 36 37  1  0
 37 38  1  0
 37 39  1  0
 37 40  1  0
 40 41  1  0
 41 42  1  0
 42 43  2  0
 42 44  1  0
 44 45  1  0
 45 46  1  0
 45 47  1  0
 40 48  1  0
 48 49  1  0
 48 50  1  0
 33 51  1  0
 51 52  1  0
 52 53  1  0
 52 54  1  0
 51 55  1  0
 55 56  1  0
 27 57  1  0
 57 58  1  0
 58 59  1  0
 57  6  1  0
 55 29  1  0
 50 35  1  0
M  END
>  <ChEMBL_IDs>  (553) 
nan

>  <target_organism>  (553) 
nan

>  <target_molecule_pref_name>  (553) 
nan

>  <# Known Targets>  (553) 
nan

>  <Known Targets>  (553) 
nan

>  <smiles>  (553) 
CCC(=O)OC1CC(=O)OC(C)C/C=C\C=C/C(O)C(C)CC(CC=O)C(OC2OC(C)C(OC3CC(C)(O)C(OC(=O)CC(C)C)C(C)O3)C(N(C)C)C2O)C1OC

$$$$

     RDKit          2D

 59 61  0  0  0  0  0  0  0  0999 V2000
    6.0944   -3.8971    0.0000 C   0  0  0  0  0  0  0  0  0  0  0  0
    5.3444   -2.5981    0.0000 C   0  0  0  0  0  0  0  0  0  0  0  0
    6.0944   -1.2990    0.0000 C   0  0  0  0  0  0  0  0  0  0  0  0
    7.5944   -1.2990    0.0000 O   0  0  0  0  0  0  0  0  0  0  0  0
    5.3444   -0.0000    0.0000 O   0  0  0  0  0  0  0  0  0  0  0  0
    3.8444    0.0000    0.0000 C   0  0  0  0  0  0  0  0  0  0  0  0
    3.5517   -1.4712    0.0000 C   0  0  0  0  0  0  0  0  0  0  0  0
    2.7184   -2.7184    0.0000 C   0  0  0  0  0  0  0  0  0  0  0  0
    3.7790   -3.7790    0.0000 O   0  0  0  0  0  0  0  0  0  0  0  0
    1.4712   -3.5517    0.0000 O   0  0  0  0  0  0  0  0  0  0  0  0
   -0.0000   -3.8444    0.0000 C   0  0  0  0  0  0  0  0  0  0  0  0
   -0.0000   -5.3444    0.0000 C   0  0  0  0  0  0  0  0  0  0  0  0
   -1.4712   -3.5517    0.0000 C   0  0  0  0  0  0  0  0  0  0  0  0
   -2.7184   -2.7184    0.0000 C   0  0  0  0  0  0  0  0  0  0  0  0
   -3.5517   -1.4712    0.0000 C   0  0  0  0  0  0  0  0  0  0  0  0
   -3.8444    0.0000    0.0000 C   0  0  0  0  0  0  0  0  0  0  0  0
   -3.5517    1.4712    0.0000 C   0  0  0  0  0  0  0  0  0  0  0  0
   -2.7184    2.7184    0.0000 C   0  0  0  0  0  0  0  0  0  0  0  0
   -3.7790    3.7790    0.0000 O   0  0  0  0  0  0  0  0  0  0  0  0
   -1.4712    3.5517    0.0000 C   0  0  0  0  0  0  0  0  0  0  0  0
   -2.0452    4.9376    0.0000 C   0  0  0  0  0  0  0  0  0  0  0  0
    0.0000    3.8444    0.0000 C   0  0  0  0  0  0  0  0  0  0  0  0
    1.4712    3.5517    0.0000 C   0  0  0  0  0  0  0  0  0  0  0  0
    2.0452    4.9376    0.0000 C   0  0  0  0  0  0  0  0  0  0  0  0
    3.5324    5.1333    0.0000 C   0  0  0  0  0  0  0  0  0  0  0  0
    4.1064    6.5192    0.0000 O   0  0  0  0  0  0  0  0  0  0  0  0
    2.7184    2.7184    0.0000 C   0  0  0  0  0  0  0  0  0  0  0  0
    3.7790    3.7790    0.0000 O   0  0  0  0  0  0  0  0  0  0  0  0
    5.2279    3.3908    0.0000 C   0  0  0  0  0  0  0  0  0  0  0  0
    5.6162    1.9419    0.0000 O   0  0  0  0  0  0  0  0  0  0  0  0
    7.0650    1.5537    0.0000 C   0  0  0  0  0  0  0  0  0  0  0  0
    7.4533    0.1048    0.0000 C   0  0  0  0  0  0  0  0  0  0  0  0
    8.1257    2.6144    0.0000 C   0  0  0  0  0  0  0  0  0  0  0  0
    9.5746    2.2261    0.0000 O   0  0  0  0  0  0  0  0  0  0  0  0
    9.9628    0.7772    0.0000 C   0  0  0  0  0  0  0  0  0  0  0  0
   11.4117    0.3890    0.0000 C   0  0  0  0  0  0  0  0  0  0  0  0
   11.7999   -1.0599    0.0000 C   0  0  0  0  0  0  0  0  0  0  0  0
   12.6603   -2.2886    0.0000 C   0  0  0  0  0  0  0  0  0  0  0  0
   13.1594   -0.4260    0.0000 O   0  0  0  0  0  0  0  0  0  0  0  0
   10.7393   -2.1205    0.0000 C   0  0  0  0  0  0  0  0  0  0  0  0
   11.1275   -3.5694    0.0000 O   0  0  0  0  0  0  0  0  0  0  0  0
   10.0669   -4.6301    0.0000 C   0  0  0  0  0  0  0  0  0  0  0  0
    8.6180   -4.2419    0.0000 O   0  0  0  0  0  0  0  0  0  0  0  0
   10.4551   -6.0790    0.0000 C   0  0  0  0  0  0  0  0  0  0  0  0
    9.3944   -7.1396    0.0000 C   0  0  0  0  0  0  0  0  0  0  0  0
    9.7826   -8.5885    0.0000 C   0  0  0  0  0  0  0  0  0  0  0  0
    7.9455   -6.7514    0.0000 C   0  0  0  0  0  0  0  0  0  0  0  0
    9.2904   -1.7323    0.0000 C   0  0  0  0  0  0  0  0  0  0  0  0
    8.2297   -2.7930    0.0000 C   0  0  0  0  0  0  0  0  0  0  0  0
    8.9022   -0.2834    0.0000 O   0  0  0  0  0  0  0  0  0  0  0  0
    7.7375    4.0632    0.0000 C   0  0  0  0  0  0  0  0  0  0  0  0
    8.7981    5.1239    0.0000 N   0  0  0  0  0  0  0  0  0  0  0  0
   10.2470    4.7357    0.0000 C   0  0  0  0  0  0  0  0  0  0  0  0
    8.4099    6.5728    0.0000 C   0  0  0  0  0  0  0  0  0  0  0  0
    6.2886    4.4515    0.0000 C   0  0  0  0  0  0  0  0  0  0  0  0
    5.9004    5.9004    0.0000 O   0  0  0  0  0  0  0  0  0  0  0  0
    3.5517    1.4712    0.0000 C   0  0  0  0  0  0  0  0  0  0  0  0
    4.9376    2.0452    0.0000 O   0  0  0  0  0  0  0  0  0  0  0  0
    6.1276    1.1321    0.0000 C   0  0  0  0  0  0  0  0  0  0  0  0
  1  2  1  0
  2  3  1  0
  3  4  2  0
  3  5  1  0
  5  6  1  0
  6  7  1  0
  7  8  1  0
  8  9  2  0
  8 10  1  0
 10 11  1  0
 11 12  1  0
 11 13  1  0
 13 14  1  0
 14 15  2  0
 15 16  1  0
 16 17  2  0
 17 18  1  0
 18 19  1  0
 18 20  1  0
 20 21  1  0
 20 22  1  0
 22 23  1  0
 23 24  1  0
 24 25  1  0
 25 26  2  0
 23 27  1  0
 27 28  1  0
 28 29  1  0
 29 30  1  0
 30 31  1  0
 31 32  1  0
 31 33  1  0
 33 34  1  0
 34 35  1  0
 35 36  1  0
 36 37  1  0
 37 38  1  0
 37 39  1  0
 37 40  1  0
 40 41  1  0
 41 42  1  0
 42 43  2  0
 42 44  1  0
 44 45  1  0
 45 46  1  0
 45 47  1  0
 40 48  1  0
 48 49  1  0
 48 50  1  0
 33 51  1  0
 51 52  1  0
 52 53  1  0
 52 54  1  0
 51 55  1  0
 55 56  1  0
 27 57  1  0
 57 58  1  0
 58 59  1  0
 57  6  1  0
 55 29  1  0
 50 35  1  0
M  END
>  <ChEMBL_IDs>  (554) 
nan

>  <target_organism>  (554) 
nan

>  <target_molecule_pref_name>  (554) 
nan

>  <# Known Targets>  (554) 
nan

>  <Known Targets>  (554) 
nan

>  <smiles>  (554) 
CCC(=O)OC1CC(=O)OC(C)C/C=C\C=C/C(O)C(C)CC(CC=O)C(OC2OC(C)C(OC3CC(C)(O)C(OC(=O)CC(C)C)C(C)O3)C(N(C)C)C2O)C1OC

$$$$

     RDKit          2D

 59 61  0  0  0  0  0  0  0  0999 V2000
    6.0944   -3.8971    0.0000 C   0  0  0  0  0  0  0  0  0  0  0  0
    5.3444   -2.5981    0.0000 C   0  0  0  0  0  0  0  0  0  0  0  0
    6.0944   -1.2990    0.0000 C   0  0  0  0  0  0  0  0  0  0  0  0
    7.5944   -1.2990    0.0000 O   0  0  0  0  0  0  0  0  0  0  0  0
    5.3444   -0.0000    0.0000 O   0  0  0  0  0  0  0  0  0  0  0  0
    3.8444    0.0000    0.0000 C   0  0  0  0  0  0  0  0  0  0  0  0
    3.5517   -1.4712    0.0000 C   0  0  0  0  0  0  0  0  0  0  0  0
    2.7184   -2.7184    0.0000 C   0  0  0  0  0  0  0  0  0  0  0  0
    3.7790   -3.7790    0.0000 O   0  0  0  0  0  0  0  0  0  0  0  0
    1.4712   -3.5517    0.0000 O   0  0  0  0  0  0  0  0  0  0  0  0
   -0.0000   -3.8444    0.0000 C   0  0  0  0  0  0  0  0  0  0  0  0
   -0.0000   -5.3444    0.0000 C   0  0  0  0  0  0  0  0  0  0  0  0
   -1.4712   -3.5517    0.0000 C   0  0  0  0  0  0  0  0  0  0  0  0
   -2.7184   -2.7184    0.0000 C   0  0  0  0  0  0  0  0  0  0  0  0
   -3.7790   -3.7790    0.0000 O   0  0  0  0  0  0  0  0  0  0  0  0
   -3.5517   -1.4712    0.0000 C   0  0  0  0  0  0  0  0  0  0  0  0
   -3.8444    0.0000    0.0000 C   0  0  0  0  0  0  0  0  0  0  0  0
   -3.5517    1.4712    0.0000 C   0  0  0  0  0  0  0  0  0  0  0  0
   -2.7184    2.7184    0.0000 C   0  0  0  0  0  0  0  0  0  0  0  0
   -1.4712    3.5517    0.0000 C   0  0  0  0  0  0  0  0  0  0  0  0
   -2.0452    4.9376    0.0000 C   0  0  0  0  0  0  0  0  0  0  0  0
    0.0000    3.8444    0.0000 C   0  0  0  0  0  0  0  0  0  0  0  0
    1.4712    3.5517    0.0000 C   0  0  0  0  0  0  0  0  0  0  0  0
    2.0452    4.9376    0.0000 C   0  0  0  0  0  0  0  0  0  0  0  0
    3.5324    5.1333    0.0000 C   0  0  0  0  0  0  0  0  0  0  0  0
    4.1064    6.5192    0.0000 O   0  0  0  0  0  0  0  0  0  0  0  0
    2.7184    2.7184    0.0000 C   0  0  0  0  0  0  0  0  0  0  0  0
    3.7790    3.7790    0.0000 O   0  0  0  0  0  0  0  0  0  0  0  0
    5.2279    3.3908    0.0000 C   0  0  0  0  0  0  0  0  0  0  0  0
    5.6162    1.9419    0.0000 O   0  0  0  0  0  0  0  0  0  0  0  0
    7.0650    1.5537    0.0000 C   0  0  0  0  0  0  0  0  0  0  0  0
    7.4533    0.1048    0.0000 C   0  0  0  0  0  0  0  0  0  0  0  0
    8.1257    2.6144    0.0000 C   0  0  0  0  0  0  0  0  0  0  0  0
    9.5746    2.2261    0.0000 O   0  0  0  0  0  0  0  0  0  0  0  0
    9.9628    0.7772    0.0000 C   0  0  0  0  0  0  0  0  0  0  0  0
   11.4117    0.3890    0.0000 C   0  0  0  0  0  0  0  0  0  0  0  0
   11.7999   -1.0599    0.0000 C   0  0  0  0  0  0  0  0  0  0  0  0
   12.6603   -2.2886    0.0000 C   0  0  0  0  0  0  0  0  0  0  0  0
   13.1594   -0.4260    0.0000 O   0  0  0  0  0  0  0  0  0  0  0  0
   10.7393   -2.1205    0.0000 C   0  0  0  0  0  0  0  0  0  0  0  0
   11.1275   -3.5694    0.0000 O   0  0  0  0  0  0  0  0  0  0  0  0
   10.0669   -4.6301    0.0000 C   0  0  0  0  0  0  0  0  0  0  0  0
    8.6180   -4.2419    0.0000 O   0  0  0  0  0  0  0  0  0  0  0  0
   10.4551   -6.0790    0.0000 C   0  0  0  0  0  0  0  0  0  0  0  0
    9.3944   -7.1396    0.0000 C   0  0  0  0  0  0  0  0  0  0  0  0
    9.7826   -8.5885    0.0000 C   0  0  0  0  0  0  0  0  0  0  0  0
    7.9455   -6.7514    0.0000 C   0  0  0  0  0  0  0  0  0  0  0  0
    9.2904   -1.7323    0.0000 C   0  0  0  0  0  0  0  0  0  0  0  0
    8.2297   -2.7930    0.0000 C   0  0  0  0  0  0  0  0  0  0  0  0
    8.9022   -0.2834    0.0000 O   0  0  0  0  0  0  0  0  0  0  0  0
    7.7375    4.0632    0.0000 C   0  0  0  0  0  0  0  0  0  0  0  0
    8.7981    5.1239    0.0000 N   0  0  0  0  0  0  0  0  0  0  0  0
    8.4099    6.5728    0.0000 C   0  0  0  0  0  0  0  0  0  0  0  0
   10.2470    4.7357    0.0000 C   0  0  0  0  0  0  0  0  0  0  0  0
    6.2886    4.4515    0.0000 C   0  0  0  0  0  0  0  0  0  0  0  0
    5.9004    5.9004    0.0000 O   0  0  0  0  0  0  0  0  0  0  0  0
    3.5517    1.4712    0.0000 C   0  0  0  0  0  0  0  0  0  0  0  0
    4.9376    2.0452    0.0000 O   0  0  0  0  0  0  0  0  0  0  0  0
    6.1276    1.1321    0.0000 C   0  0  0  0  0  0  0  0  0  0  0  0
  1  2  1  0
  2  3  1  0
  3  4  2  0
  3  5  1  0
  5  6  1  0
  6  7  1  0
  7  8  1  0
  8  9  2  0
  8 10  1  0
 10 11  1  0
 11 12  1  0
 11 13  1  0
 13 14  1  0
 14 15  1  0
 14 16  2  0
 16 17  1  0
 17 18  2  0
 18 19  1  0
 19 20  1  0
 20 21  1  0
 20 22  1  0
 22 23  1  0
 23 24  1  0
 24 25  1  0
 25 26  2  0
 23 27  1  0
 27 28  1  0
 28 29  1  0
 29 30  1  0
 30 31  1  0
 31 32  1  0
 31 33  1  0
 33 34  1  0
 34 35  1  0
 35 36  1  0
 36 37  1  0
 37 38  1  0
 37 39  1  0
 37 40  1  0
 40 41  1  0
 41 42  1  0
 42 43  2  0
 42 44  1  0
 44 45  1  0
 45 46  1  0
 45 47  1  0
 40 48  1  0
 48 49  1  0
 48 50  1  0
 33 51  1  0
 51 52  1  0
 52 53  1  0
 52 54  1  0
 51 55  1  0
 55 56  1  0
 27 57  1  0
 57 58  1  0
 58 59  1  0
 57  6  1  0
 55 29  1  0
 50 35  1  0
M  END
>  <ChEMBL_IDs>  (555) 
nan

>  <target_organism>  (555) 
nan

>  <target_molecule_pref_name>  (555) 
nan

>  <# Known Targets>  (555) 
nan

>  <Known Targets>  (555) 
nan

>  <smiles>  (555) 
CCC(=O)OC1CC(=O)OC(C)C/C(O)=C\C=C/CC(C)CC(CC=O)C(OC2OC(C)C(OC3CC(C)(O)C(OC(=O)CC(C)C)C(C)O3)C(N(C)C)C2O)C1OC

$$$$

     RDKit          2D

 59 61  0  0  0  0  0  0  0  0999 V2000
    6.0944   -3.8971    0.0000 C   0  0  0  0  0  0  0  0  0  0  0  0
    5.3444   -2.5981    0.0000 C   0  0  0  0  0  0  0  0  0  0  0  0
    6.0944   -1.2990    0.0000 C   0  0  0  0  0  0  0  0  0  0  0  0
    7.5944   -1.2990    0.0000 O   0  0  0  0  0  0  0  0  0  0  0  0
    5.3444   -0.0000    0.0000 O   0  0  0  0  0  0  0  0  0  0  0  0
    3.8444    0.0000    0.0000 C   0  0  0  0  0  0  0  0  0  0  0  0
    3.5517   -1.4712    0.0000 C   0  0  0  0  0  0  0  0  0  0  0  0
    2.7184   -2.7184    0.0000 C   0  0  0  0  0  0  0  0  0  0  0  0
    3.7790   -3.7790    0.0000 O   0  0  0  0  0  0  0  0  0  0  0  0
    1.4712   -3.5517    0.0000 O   0  0  0  0  0  0  0  0  0  0  0  0
   -0.0000   -3.8444    0.0000 C   0  0  0  0  0  0  0  0  0  0  0  0
   -0.0000   -5.3444    0.0000 C   0  0  0  0  0  0  0  0  0  0  0  0
   -1.4712   -3.5517    0.0000 C   0  0  0  0  0  0  0  0  0  0  0  0
   -2.7184   -2.7184    0.0000 C   0  0  0  0  0  0  0  0  0  0  0  0
   -3.7790   -3.7790    0.0000 O   0  0  0  0  0  0  0  0  0  0  0  0
   -3.5517   -1.4712    0.0000 C   0  0  0  0  0  0  0  0  0  0  0  0
   -3.8444    0.0000    0.0000 C   0  0  0  0  0  0  0  0  0  0  0  0
   -3.5517    1.4712    0.0000 C   0  0  0  0  0  0  0  0  0  0  0  0
   -2.7184    2.7184    0.0000 C   0  0  0  0  0  0  0  0  0  0  0  0
   -1.4712    3.5517    0.0000 C   0  0  0  0  0  0  0  0  0  0  0  0
   -2.0452    4.9376    0.0000 C   0  0  0  0  0  0  0  0  0  0  0  0
    0.0000    3.8444    0.0000 C   0  0  0  0  0  0  0  0  0  0  0  0
    1.4712    3.5517    0.0000 C   0  0  0  0  0  0  0  0  0  0  0  0
    2.0452    4.9376    0.0000 C   0  0  0  0  0  0  0  0  0  0  0  0
    3.5324    5.1333    0.0000 C   0  0  0  0  0  0  0  0  0  0  0  0
    4.1064    6.5192    0.0000 O   0  0  0  0  0  0  0  0  0  0  0  0
    2.7184    2.7184    0.0000 C   0  0  0  0  0  0  0  0  0  0  0  0
    3.7790    3.7790    0.0000 O   0  0  0  0  0  0  0  0  0  0  0  0
    5.2279    3.3908    0.0000 C   0  0  0  0  0  0  0  0  0  0  0  0
    5.6162    1.9419    0.0000 O   0  0  0  0  0  0  0  0  0  0  0  0
    7.0650    1.5537    0.0000 C   0  0  0  0  0  0  0  0  0  0  0  0
    7.4533    0.1048    0.0000 C   0  0  0  0  0  0  0  0  0  0  0  0
    8.1257    2.6144    0.0000 C   0  0  0  0  0  0  0  0  0  0  0  0
    9.5746    2.2261    0.0000 O   0  0  0  0  0  0  0  0  0  0  0  0
    9.9628    0.7772    0.0000 C   0  0  0  0  0  0  0  0  0  0  0  0
   11.4117    0.3890    0.0000 C   0  0  0  0  0  0  0  0  0  0  0  0
   11.7999   -1.0599    0.0000 C   0  0  0  0  0  0  0  0  0  0  0  0
   12.6603   -2.2886    0.0000 C   0  0  0  0  0  0  0  0  0  0  0  0
   13.1594   -0.4260    0.0000 O   0  0  0  0  0  0  0  0  0  0  0  0
   10.7393   -2.1205    0.0000 C   0  0  0  0  0  0  0  0  0  0  0  0
   11.1275   -3.5694    0.0000 O   0  0  0  0  0  0  0  0  0  0  0  0
   10.0669   -4.6301    0.0000 C   0  0  0  0  0  0  0  0  0  0  0  0
    8.6180   -4.2419    0.0000 O   0  0  0  0  0  0  0  0  0  0  0  0
   10.4551   -6.0790    0.0000 C   0  0  0  0  0  0  0  0  0  0  0  0
    9.3944   -7.1396    0.0000 C   0  0  0  0  0  0  0  0  0  0  0  0
    9.7826   -8.5885    0.0000 C   0  0  0  0  0  0  0  0  0  0  0  0
    7.9455   -6.7514    0.0000 C   0  0  0  0  0  0  0  0  0  0  0  0
    9.2904   -1.7323    0.0000 C   0  0  0  0  0  0  0  0  0  0  0  0
    8.2297   -2.7930    0.0000 C   0  0  0  0  0  0  0  0  0  0  0  0
    8.9022   -0.2834    0.0000 O   0  0  0  0  0  0  0  0  0  0  0  0
    7.7375    4.0632    0.0000 C   0  0  0  0  0  0  0  0  0  0  0  0
    8.7981    5.1239    0.0000 N   0  0  0  0  0  0  0  0  0  0  0  0
    8.4099    6.5728    0.0000 C   0  0  0  0  0  0  0  0  0  0  0  0
   10.2470    4.7357    0.0000 C   0  0  0  0  0  0  0  0  0  0  0  0
    6.2886    4.4515    0.0000 C   0  0  0  0  0  0  0  0  0  0  0  0
    5.9004    5.9004    0.0000 O   0  0  0  0  0  0  0  0  0  0  0  0
    3.5517    1.4712    0.0000 C   0  0  0  0  0  0  0  0  0  0  0  0
    4.9376    2.0452    0.0000 O   0  0  0  0  0  0  0  0  0  0  0  0
    6.1276    1.1321    0.0000 C   0  0  0  0  0  0  0  0  0  0  0  0
  1  2  1  0
  2  3  1  0
  3  4  2  0
  3  5  1  0
  5  6  1  0
  6  7  1  0
  7  8  1  0
  8  9  2  0
  8 10  1  0
 10 11  1  0
 11 12  1  0
 11 13  1  0
 13 14  1  0
 14 15  1  0
 14 16  1  0
 16 17  2  0
 17 18  1  0
 18 19  2  0
 19 20  1  0
 20 21  1  0
 20 22  1  0
 22 23  1  0
 23 24  1  0
 24 25  1  0
 25 26  2  0
 23 27  1  0
 27 28  1  0
 28 29  1  0
 29 30  1  0
 30 31  1  0
 31 32  1  0
 31 33  1  0
 33 34  1  0
 34 35  1  0
 35 36  1  0
 36 37  1  0
 37 38  1  0
 37 39  1  0
 37 40  1  0
 40 41  1  0
 41 42  1  0
 42 43  2  0
 42 44  1  0
 44 45  1  0
 45 46  1  0
 45 47  1  0
 40 48  1  0
 48 49  1  0
 48 50  1  0
 33 51  1  0
 51 52  1  0
 52 53  1  0
 52 54  1  0
 51 55  1  0
 55 56  1  0
 27 57  1  0
 57 58  1  0
 58 59  1  0
 57  6  1  0
 55 29  1  0
 50 35  1  0
M  END
>  <ChEMBL_IDs>  (556) 
nan

>  <target_organism>  (556) 
nan

>  <target_molecule_pref_name>  (556) 
nan

>  <# Known Targets>  (556) 
nan

>  <Known Targets>  (556) 
nan

>  <smiles>  (556) 
CCC(=O)OC1CC(=O)OC(C)CC(O)/C=C\C=C/C(C)CC(CC=O)C(OC2OC(C)C(OC3CC(C)(O)C(OC(=O)CC(C)C)C(C)O3)C(N(C)C)C2O)C1OC

$$$$

     RDKit          2D

 59 61  0  0  0  0  0  0  0  0999 V2000
   12.0944   -3.8971    0.0000 C   0  0  0  0  0  0  0  0  0  0  0  0
   10.5944   -3.8971    0.0000 C   0  0  0  0  0  0  0  0  0  0  0  0
    9.8444   -2.5981    0.0000 O   0  0  0  0  0  0  0  0  0  0  0  0
    8.3444   -2.5981    0.0000 C   0  0  0  0  0  0  0  0  0  0  0  0
    7.5944   -3.8971    0.0000 O   0  0  0  0  0  0  0  0  0  0  0  0
    7.5944   -1.2990    0.0000 C   0  0  0  0  0  0  0  0  0  0  0  0
    6.0944   -1.2990    0.0000 C   0  0  0  0  0  0  0  0  0  0  0  0
    5.3444    0.0000    0.0000 C   0  0  0  0  0  0  0  0  0  0  0  0
    3.8444    0.0000    0.0000 C   0  0  0  0  0  0  0  0  0  0  0  0
    3.5517   -1.4712    0.0000 C   0  0  0  0  0  0  0  0  0  0  0  0
    2.7184   -2.7184    0.0000 C   0  0  0  0  0  0  0  0  0  0  0  0
    3.7790   -3.7790    0.0000 C   0  0  0  0  0  0  0  0  0  0  0  0
    1.4712   -3.5517    0.0000 C   0  0  0  0  0  0  0  0  0  0  0  0
    2.0452   -4.9376    0.0000 O   0  0  0  0  0  0  0  0  0  0  0  0
   -0.0000   -3.8444    0.0000 C   0  0  0  0  0  0  0  0  0  0  0  0
   -1.4712   -3.5517    0.0000 C   0  0  0  0  0  0  0  0  0  0  0  0
   -2.7184   -2.7184    0.0000 C   0  0  0  0  0  0  0  0  0  0  0  0
   -3.7790   -3.7790    0.0000 C   0  0  0  0  0  0  0  0  0  0  0  0
   -3.5517   -1.4712    0.0000 C   0  0  0  0  0  0  0  0  0  0  0  0
   -3.8444    0.0000    0.0000 C   0  0  0  0  0  0  0  0  0  0  0  0
   -5.3444    0.0000    0.0000 C   0  0  0  0  0  0  0  0  0  0  0  0
   -6.0944    1.2990    0.0000 O   0  0  0  0  0  0  0  0  0  0  0  0
   -7.5944    1.2990    0.0000 C   0  0  0  0  0  0  0  0  0  0  0  0
   -8.3444    2.5981    0.0000 O   0  0  0  0  0  0  0  0  0  0  0  0
   -9.8444    2.5981    0.0000 C   0  0  0  0  0  0  0  0  0  0  0  0
  -10.5944    3.8971    0.0000 C   0  0  0  0  0  0  0  0  0  0  0  0
  -10.5944    1.2990    0.0000 C   0  0  0  0  0  0  0  0  0  0  0  0
  -12.0944    1.2990    0.0000 O   0  0  0  0  0  0  0  0  0  0  0  0
   -9.8444    0.0000    0.0000 C   0  0  0  0  0  0  0  0  0  0  0  0
  -10.5944   -1.2990    0.0000 O   0  0  0  0  0  0  0  0  0  0  0  0
   -9.8444   -2.5981    0.0000 C   0  0  0  0  0  0  0  0  0  0  0  0
   -8.3444    0.0000    0.0000 C   0  0  0  0  0  0  0  0  0  0  0  0
   -7.5944   -1.2990    0.0000 O   0  0  0  0  0  0  0  0  0  0  0  0
   -8.3444   -2.5981    0.0000 C   0  0  0  0  0  0  0  0  0  0  0  0
   -3.5517    1.4712    0.0000 C   0  0  0  0  0  0  0  0  0  0  0  0
   -4.9376    2.0452    0.0000 C   0  0  0  0  0  0  0  0  0  0  0  0
   -5.1333    3.5324    0.0000 C   0  0  0  0  0  0  0  0  0  0  0  0
   -2.7184    2.7184    0.0000 O   0  0  0  0  0  0  0  0  0  0  0  0
   -1.4712    3.5517    0.0000 C   0  0  0  0  0  0  0  0  0  0  0  0
   -2.0452    4.9376    0.0000 O   0  0  0  0  0  0  0  0  0  0  0  0
    0.0000    3.8444    0.0000 C   0  0  0  0  0  0  0  0  0  0  0  0
    1.4712    3.5517    0.0000 C   0  0  0  0  0  0  0  0  0  0  0  0
    2.0452    4.9376    0.0000 O   0  0  0  0  0  0  0  0  0  0  0  0
    2.7184    2.7184    0.0000 C   0  0  0  0  0  0  0  0  0  0  0  0
    3.3441    3.7599    0.0000 C   0  0  0  0  0  0  0  0  0  0  0  0
    3.5517    1.4712    0.0000 C   0  0  0  0  0  0  0  0  0  0  0  0
    4.9376    2.0452    0.0000 O   0  0  0  0  0  0  0  0  0  0  0  0
    5.1333    3.5324    0.0000 C   0  0  0  0  0  0  0  0  0  0  0  0
    3.9433    4.4455    0.0000 O   0  0  0  0  0  0  0  0  0  0  0  0
    4.1391    5.9327    0.0000 C   0  0  0  0  0  0  0  0  0  0  0  0
    2.9491    6.8458    0.0000 C   0  0  0  0  0  0  0  0  0  0  0  0
    5.5249    6.5067    0.0000 C   0  0  0  0  0  0  0  0  0  0  0  0
    5.7207    7.9939    0.0000 O   0  0  0  0  0  0  0  0  0  0  0  0
    6.7150    5.5936    0.0000 C   0  0  0  0  0  0  0  0  0  0  0  0
    8.1008    6.1676    0.0000 N   0  0  0  0  0  0  0  0  0  0  0  0
    9.2908    5.2544    0.0000 C   0  0  0  0  0  0  0  0  0  0  0  0
    8.2966    7.6548    0.0000 C   0  0  0  0  0  0  0  0  0  0  0  0
    6.5192    4.1064    0.0000 C   0  0  0  0  0  0  0  0  0  0  0  0
    7.7092    3.1933    0.0000 O   0  0  0  0  0  0  0  0  0  0  0  0
  1  2  1  0
  2  3  1  0
  3  4  1  0
  4  5  2  0
  4  6  1  0
  6  7  2  0
  7  8  1  0
  9  8  1  1
  9 10  1  0
 10 11  1  0
 11 12  1  1
 11 13  1  0
 13 14  2  0
 13 15  1  0
 15 16  2  0
 16 17  1  0
 17 18  1  0
 17 19  2  0
 19 20  1  0
 20 21  1  6
 21 22  1  0
 22 23  1  0
 23 24  1  0
 24 25  1  0
 25 26  1  0
 25 27  1  0
 27 28  1  0
 27 29  1  0
 29 30  1  0
 30 31  1  0
 29 32  1  0
 32 33  1  0
 33 34  1  0
 20 35  1  0
 35 36  1  1
 36 37  1  0
 35 38  1  0
 38 39  1  0
 39 40  2  0
 39 41  1  0
 41 42  1  0
 42 43  1  1
 42 44  1  0
 44 45  1  6
 44 46  1  0
 46 47  1  1
 47 48  1  0
 48 49  1  0
 49 50  1  0
 50 51  1  0
 50 52  1  0
 52 53  1  0
 52 54  1  0
 54 55  1  0
 55 56  1  0
 55 57  1  0
 54 58  1  0
 58 59  1  0
 46  9  1  0
 58 48  1  0
 32 23  1  0
M  END
>  <ChEMBL_IDs>  (557) 
CHEMBL137068

>  <target_organism>  (557) 
nan

>  <target_molecule_pref_name>  (557) 
nan

>  <# Known Targets>  (557) 
nan

>  <Known Targets>  (557) 
nan

>  <smiles>  (557) 
CCOC(=O)/C=C/C[C@H]1C[C@@H](C)C(=O)/C=C/C(C)=C/[C@H](COC2OC(C)C(O)C(OC)C2OC)[C@@H](CC)OC(=O)C[C@@H](O)[C@H](C)[C@H]1OC1OC(C)C(O)C(N(C)C)C1O

$$$$

     RDKit          2D

 59 61  0  0  0  0  0  0  0  0999 V2000
    9.8444   -2.5981    0.0000 C   0  0  0  0  0  0  0  0  0  0  0  0
    8.3444   -2.5981    0.0000 C   0  0  0  0  0  0  0  0  0  0  0  0
    7.5944   -1.2990    0.0000 O   0  0  0  0  0  0  0  0  0  0  0  0
    6.0944   -1.2990    0.0000 C   0  0  0  0  0  0  0  0  0  0  0  0
    5.3444    0.0000    0.0000 C   0  0  0  0  0  0  0  0  0  0  0  0
    3.8444    0.0000    0.0000 C   0  0  0  0  0  0  0  0  0  0  0  0
    3.5517   -1.4712    0.0000 C   0  0  0  0  0  0  0  0  0  0  0  0
    2.7184   -2.7184    0.0000 C   0  0  0  0  0  0  0  0  0  0  0  0
    3.7790   -3.7790    0.0000 C   0  0  0  0  0  0  0  0  0  0  0  0
    1.4712   -3.5517    0.0000 C   0  0  0  0  0  0  0  0  0  0  0  0
    2.0452   -4.9376    0.0000 O   0  0  0  0  0  0  0  0  0  0  0  0
   -0.0000   -3.8444    0.0000 C   0  0  0  0  0  0  0  0  0  0  0  0
   -1.4712   -3.5517    0.0000 C   0  0  0  0  0  0  0  0  0  0  0  0
   -2.7184   -2.7184    0.0000 C   0  0  0  0  0  0  0  0  0  0  0  0
   -3.7790   -3.7790    0.0000 C   0  0  0  0  0  0  0  0  0  0  0  0
   -3.5517   -1.4712    0.0000 C   0  0  0  0  0  0  0  0  0  0  0  0
   -3.8444    0.0000    0.0000 C   0  0  0  0  0  0  0  0  0  0  0  0
   -5.3444    0.0000    0.0000 C   0  0  0  0  0  0  0  0  0  0  0  0
   -6.0944    1.2990    0.0000 O   0  0  0  0  0  0  0  0  0  0  0  0
   -7.5944    1.2990    0.0000 C   0  0  0  0  0  0  0  0  0  0  0  0
   -8.3444    2.5981    0.0000 O   0  0  0  0  0  0  0  0  0  0  0  0
   -9.8444    2.5981    0.0000 C   0  0  0  0  0  0  0  0  0  0  0  0
  -10.5944    3.8971    0.0000 C   0  0  0  0  0  0  0  0  0  0  0  0
  -10.5944    1.2990    0.0000 C   0  0  0  0  0  0  0  0  0  0  0  0
  -12.0944    1.2990    0.0000 O   0  0  0  0  0  0  0  0  0  0  0  0
   -9.8444    0.0000    0.0000 C   0  0  0  0  0  0  0  0  0  0  0  0
  -10.5944   -1.2990    0.0000 O   0  0  0  0  0  0  0  0  0  0  0  0
   -9.8444   -2.5981    0.0000 C   0  0  0  0  0  0  0  0  0  0  0  0
   -8.3444    0.0000    0.0000 C   0  0  0  0  0  0  0  0  0  0  0  0
   -7.5944   -1.2990    0.0000 O   0  0  0  0  0  0  0  0  0  0  0  0
   -8.3444   -2.5981    0.0000 C   0  0  0  0  0  0  0  0  0  0  0  0
   -3.5517    1.4712    0.0000 C   0  0  0  0  0  0  0  0  0  0  0  0
   -4.9376    2.0452    0.0000 C   0  0  0  0  0  0  0  0  0  0  0  0
   -5.1333    3.5324    0.0000 C   0  0  0  0  0  0  0  0  0  0  0  0
   -2.7184    2.7184    0.0000 O   0  0  0  0  0  0  0  0  0  0  0  0
   -1.4712    3.5517    0.0000 C   0  0  0  0  0  0  0  0  0  0  0  0
   -2.0452    4.9376    0.0000 O   0  0  0  0  0  0  0  0  0  0  0  0
    0.0000    3.8444    0.0000 C   0  0  0  0  0  0  0  0  0  0  0  0
    1.4712    3.5517    0.0000 C   0  0  0  0  0  0  0  0  0  0  0  0
    2.0452    4.9376    0.0000 O   0  0  0  0  0  0  0  0  0  0  0  0
    2.7184    2.7184    0.0000 C   0  0  0  0  0  0  0  0  0  0  0  0
    3.3441    3.7599    0.0000 C   0  0  0  0  0  0  0  0  0  0  0  0
    3.5517    1.4712    0.0000 C   0  0  0  0  0  0  0  0  0  0  0  0
    4.9376    2.0452    0.0000 O   0  0  0  0  0  0  0  0  0  0  0  0
    5.1333    3.5324    0.0000 C   0  0  0  0  0  0  0  0  0  0  0  0
    3.9433    4.4455    0.0000 O   0  0  0  0  0  0  0  0  0  0  0  0
    4.1391    5.9327    0.0000 C   0  0  0  0  0  0  0  0  0  0  0  0
    2.9491    6.8458    0.0000 C   0  0  0  0  0  0  0  0  0  0  0  0
    5.5249    6.5067    0.0000 C   0  0  0  0  0  0  0  0  0  0  0  0
    5.7207    7.9939    0.0000 O   0  0  0  0  0  0  0  0  0  0  0  0
    6.7150    5.5936    0.0000 C   0  0  0  0  0  0  0  0  0  0  0  0
    8.1008    6.1676    0.0000 N   0  0  0  0  0  0  0  0  0  0  0  0
    9.2908    5.2544    0.0000 C   0  0  0  0  0  0  0  0  0  0  0  0
    8.2966    7.6548    0.0000 C   0  0  0  0  0  0  0  0  0  0  0  0
    6.5192    4.1064    0.0000 C   0  0  0  0  0  0  0  0  0  0  0  0
    7.7092    3.1933    0.0000 O   0  0  0  0  0  0  0  0  0  0  0  0
    5.3444   -2.5981    0.0000 O   0  0  0  0  0  0  0  0  0  0  0  0
    6.0944   -3.8971    0.0000 C   0  0  0  0  0  0  0  0  0  0  0  0
    5.3444   -5.1962    0.0000 C   0  0  0  0  0  0  0  0  0  0  0  0
  1  2  1  0
  2  3  1  0
  3  4  1  0
  4  5  1  0
  6  5  1  1
  6  7  1  0
  7  8  1  0
  8  9  1  1
  8 10  1  0
 10 11  2  0
 10 12  1  0
 12 13  2  0
 13 14  1  0
 14 15  1  0
 14 16  2  0
 16 17  1  0
 17 18  1  6
 18 19  1  0
 20 19  1  1
 20 21  1  0
 21 22  1  0
 22 23  1  1
 22 24  1  0
 24 25  1  6
 24 26  1  0
 26 27  1  6
 27 28  1  0
 26 29  1  0
 29 30  1  6
 30 31  1  0
 17 32  1  0
 32 33  1  1
 33 34  1  0
 32 35  1  0
 35 36  1  0
 36 37  2  0
 36 38  1  0
 38 39  1  0
 39 40  1  1
 39 41  1  0
 41 42  1  6
 41 43  1  0
 43 44  1  1
 45 44  1  6
 45 46  1  0
 46 47  1  0
 47 48  1  6
 47 49  1  0
 49 50  1  1
 49 51  1  0
 51 52  1  6
 52 53  1  0
 52 54  1  0
 51 55  1  0
 55 56  1  1
  4 57  1  0
 57 58  1  0
 58 59  1  0
 43  6  1  0
 55 45  1  0
 29 20  1  0
M  END
>  <ChEMBL_IDs>  (558) 
CHEMBL41669

>  <target_organism>  (558) 
Rattus norvegicus

>  <target_molecule_pref_name>  (558) 
nan

>  <# Known Targets>  (558) 
nan

>  <Known Targets>  (558) 
nan

>  <smiles>  (558) 
CCOC(C[C@H]1C[C@@H](C)C(=O)/C=C/C(C)=C/[C@H](CO[C@@H]2O[C@H](C)[C@@H](O)[C@@H](OC)[C@H]2OC)[C@@H](CC)OC(=O)C[C@@H](O)[C@H](C)[C@H]1O[C@@H]1O[C@H](C)[C@@H](O)[C@H](N(C)C)[C@H]1O)OCC

$$$$

     RDKit          2D

 59 61  0  0  0  0  0  0  0  0999 V2000
   -1.9207   -4.8423    0.0000 C   0  0  0  0  0  0  0  0  0  0  0  0
   -0.6814   -3.9973    0.0000 C   0  0  0  0  0  0  0  0  0  0  0  0
    0.6701   -4.6482    0.0000 C   0  0  0  0  0  0  0  0  0  0  0  0
    0.5990   -6.1465    0.0000 O   0  0  0  0  0  0  0  0  0  0  0  0
    1.9094   -3.8032    0.0000 O   0  0  0  0  0  0  0  0  0  0  0  0
    3.2609   -4.4540    0.0000 C   0  0  0  0  0  0  0  0  0  0  0  0
    4.5002   -3.6090    0.0000 C   0  0  0  0  0  0  0  0  0  0  0  0
    4.3881   -2.1132    0.0000 O   0  0  0  0  0  0  0  0  0  0  0  0
    3.0367   -1.4624    0.0000 C   0  0  0  0  0  0  0  0  0  0  0  0
    3.3705    0.0000    0.0000 C   0  0  0  0  0  0  0  0  0  0  0  0
    4.8705    0.0000    0.0000 C   0  0  0  0  0  0  0  0  0  0  0  0
    3.0367    1.4624    0.0000 C   0  0  0  0  0  0  0  0  0  0  0  0
    4.3881    2.1132    0.0000 O   0  0  0  0  0  0  0  0  0  0  0  0
    4.5002    3.6090    0.0000 C   0  0  0  0  0  0  0  0  0  0  0  0
    5.8517    4.2598    0.0000 C   0  0  0  0  0  0  0  0  0  0  0  0
    5.9638    5.7557    0.0000 C   0  0  0  0  0  0  0  0  0  0  0  0
    6.5807    7.1229    0.0000 C   0  0  0  0  0  0  0  0  0  0  0  0
    7.4174    5.3855    0.0000 O   0  0  0  0  0  0  0  0  0  0  0  0
    7.8237    3.9416    0.0000 C   0  0  0  0  0  0  0  0  0  0  0  0
    4.7244    6.6006    0.0000 C   0  0  0  0  0  0  0  0  0  0  0  0
    4.8365    8.0964    0.0000 O   0  0  0  0  0  0  0  0  0  0  0  0
    3.3730    5.9498    0.0000 C   0  0  0  0  0  0  0  0  0  0  0  0
    2.1336    6.7948    0.0000 C   0  0  0  0  0  0  0  0  0  0  0  0
    3.2609    4.4540    0.0000 O   0  0  0  0  0  0  0  0  0  0  0  0
    2.1015    2.6351    0.0000 C   0  0  0  0  0  0  0  0  0  0  0  0
    2.6628    3.8629    0.0000 C   0  0  0  0  0  0  0  0  0  0  0  0
    0.7500    3.2860    0.0000 C   0  0  0  0  0  0  0  0  0  0  0  0
    1.0838    4.7484    0.0000 O   0  0  0  0  0  0  0  0  0  0  0  0
   -0.7500    3.2860    0.0000 O   0  0  0  0  0  0  0  0  0  0  0  0
   -2.1015    2.6351    0.0000 C   0  0  0  0  0  0  0  0  0  0  0  0
   -3.0367    3.8079    0.0000 C   0  0  0  0  0  0  0  0  0  0  0  0
   -2.4887    5.2042    0.0000 C   0  0  0  0  0  0  0  0  0  0  0  0
   -3.0367    1.4624    0.0000 C   0  0  0  0  0  0  0  0  0  0  0  0
   -4.5199    1.2388    0.0000 C   0  0  0  0  0  0  0  0  0  0  0  0
   -3.7867    2.7614    0.0000 O   0  0  0  0  0  0  0  0  0  0  0  0
   -3.3705    0.0000    0.0000 C   0  0  0  0  0  0  0  0  0  0  0  0
   -4.8705    0.0000    0.0000 O   0  0  0  0  0  0  0  0  0  0  0  0
   -5.6205    1.2990    0.0000 C   0  0  0  0  0  0  0  0  0  0  0  0
   -4.8705    2.5981    0.0000 O   0  0  0  0  0  0  0  0  0  0  0  0
   -7.1205    1.2990    0.0000 C   0  0  0  0  0  0  0  0  0  0  0  0
   -7.8705    2.5981    0.0000 C   0  0  0  0  0  0  0  0  0  0  0  0
   -3.0367   -1.4624    0.0000 C   0  0  0  0  0  0  0  0  0  0  0  0
   -4.3881   -2.1132    0.0000 C   0  0  0  0  0  0  0  0  0  0  0  0
   -2.1015   -2.6351    0.0000 C   0  0  0  0  0  0  0  0  0  0  0  0
   -3.0367   -3.8079    0.0000 O   0  0  0  0  0  0  0  0  0  0  0  0
   -0.7500   -3.2860    0.0000 C   0  0  0  0  0  0  0  0  0  0  0  0
   -1.0838   -4.7484    0.0000 C   0  0  0  0  0  0  0  0  0  0  0  0
    0.7500   -3.2860    0.0000 C   0  0  0  0  0  0  0  0  0  0  0  0
    2.1015   -2.6351    0.0000 C   0  0  0  0  0  0  0  0  0  0  0  0
    3.5348   -3.0773    0.0000 C   0  0  0  0  0  0  0  0  0  0  0  0
    1.9669   -3.4209    0.0000 O   0  0  0  0  0  0  0  0  0  0  0  0
    5.8517   -4.2598    0.0000 O   0  0  0  0  0  0  0  0  0  0  0  0
    5.9638   -5.7557    0.0000 C   0  0  0  0  0  0  0  0  0  0  0  0
    7.3152   -6.4065    0.0000 C   0  0  0  0  0  0  0  0  0  0  0  0
    4.7244   -6.6006    0.0000 C   0  0  0  0  0  0  0  0  0  0  0  0
    3.3730   -5.9498    0.0000 C   0  0  0  0  0  0  0  0  0  0  0  0
    2.1336   -6.7948    0.0000 N   0  0  0  0  0  0  0  0  0  0  0  0
    2.2457   -8.2906    0.0000 C   0  0  0  0  0  0  0  0  0  0  0  0
    0.7129   -6.3136    0.0000 C   0  0  0  0  0  0  0  0  0  0  0  0
  1  2  1  0
  2  3  1  0
  3  4  2  0
  3  5  1  0
  5  6  1  0
  6  7  1  0
  7  8  1  0
  8  9  1  0
  9 10  1  0
 10 11  1  0
 10 12  1  0
 12 13  1  0
 13 14  1  0
 14 15  1  0
 15 16  1  0
 16 17  1  0
 16 18  1  0
 18 19  1  0
 16 20  1  0
 20 21  1  0
 20 22  1  0
 22 23  1  0
 22 24  1  0
 12 25  1  0
 25 26  1  0
 25 27  1  0
 27 28  2  0
 27 29  1  0
 29 30  1  0
 30 31  1  0
 31 32  1  0
 30 33  1  0
 33 34  1  0
 33 35  1  0
 33 36  1  0
 36 37  1  0
 37 38  1  0
 38 39  2  0
 38 40  1  0
 40 41  1  0
 36 42  1  0
 42 43  1  0
 42 44  1  0
 44 45  2  0
 44 46  1  0
 46 47  1  0
 46 48  1  0
 48 49  1  0
 49 50  1  0
 49 51  1  0
  7 52  1  0
 52 53  1  0
 53 54  1  0
 53 55  1  0
 55 56  1  0
 56 57  1  0
 57 58  1  0
 57 59  1  0
 56  6  1  0
 49  9  1  0
 24 14  1  0
M  END
>  <ChEMBL_IDs>  (559) 
nan

>  <target_organism>  (559) 
nan

>  <target_molecule_pref_name>  (559) 
nan

>  <# Known Targets>  (559) 
nan

>  <Known Targets>  (559) 
nan

>  <smiles>  (559) 
CCC(=O)OC1C(OC2C(C)C(OC3CC(C)(OC)C(O)C(C)O3)C(C)C(=O)OC(CC)C(C)(O)C(OC(=O)CC)C(C)C(=O)C(C)CC2(C)O)OC(C)CC1N(C)C

$$$$

     RDKit          2D

 60 62  0  0  0  0  0  0  0  0999 V2000
   -7.1024   -5.2306    0.0000 C   0  0  0  0  0  0  0  0  0  0  0  0
   -5.8630   -4.3856    0.0000 C   0  0  0  0  0  0  0  0  0  0  0  0
   -4.5116   -5.0365    0.0000 C   0  0  0  0  0  0  0  0  0  0  0  0
   -4.3995   -6.5323    0.0000 O   0  0  0  0  0  0  0  0  0  0  0  0
   -3.2722   -4.1915    0.0000 O   0  0  0  0  0  0  0  0  0  0  0  0
   -1.9207   -4.8423    0.0000 C   0  0  0  0  0  0  0  0  0  0  0  0
   -0.6814   -3.9973    0.0000 C   0  0  0  0  0  0  0  0  0  0  0  0
    0.6701   -4.6482    0.0000 C   0  0  0  0  0  0  0  0  0  0  0  0
    0.5990   -6.1465    0.0000 O   0  0  0  0  0  0  0  0  0  0  0  0
    1.9094   -3.8032    0.0000 O   0  0  0  0  0  0  0  0  0  0  0  0
    3.2609   -4.4540    0.0000 C   0  0  0  0  0  0  0  0  0  0  0  0
    4.5002   -3.6090    0.0000 C   0  0  0  0  0  0  0  0  0  0  0  0
    4.3881   -2.1132    0.0000 O   0  0  0  0  0  0  0  0  0  0  0  0
    3.0367   -1.4624    0.0000 C   0  0  0  0  0  0  0  0  0  0  0  0
    3.3705    0.0000    0.0000 C   0  0  0  0  0  0  0  0  0  0  0  0
    4.8705    0.0000    0.0000 C   0  0  0  0  0  0  0  0  0  0  0  0
    3.0367    1.4624    0.0000 C   0  0  0  0  0  0  0  0  0  0  0  0
    4.3881    2.1132    0.0000 O   0  0  0  0  0  0  0  0  0  0  0  0
    4.5002    3.6090    0.0000 C   0  0  0  0  0  0  0  0  0  0  0  0
    5.8517    4.2598    0.0000 C   0  0  0  0  0  0  0  0  0  0  0  0
    5.9638    5.7557    0.0000 C   0  0  0  0  0  0  0  0  0  0  0  0
    6.5807    7.1229    0.0000 C   0  0  0  0  0  0  0  0  0  0  0  0
    7.4174    5.3855    0.0000 O   0  0  0  0  0  0  0  0  0  0  0  0
    7.8237    3.9416    0.0000 C   0  0  0  0  0  0  0  0  0  0  0  0
    4.7244    6.6006    0.0000 C   0  0  0  0  0  0  0  0  0  0  0  0
    4.8365    8.0964    0.0000 O   0  0  0  0  0  0  0  0  0  0  0  0
    3.3730    5.9498    0.0000 C   0  0  0  0  0  0  0  0  0  0  0  0
    2.1336    6.7948    0.0000 C   0  0  0  0  0  0  0  0  0  0  0  0
    3.2609    4.4540    0.0000 O   0  0  0  0  0  0  0  0  0  0  0  0
    2.1015    2.6351    0.0000 C   0  0  0  0  0  0  0  0  0  0  0  0
    2.6628    3.8629    0.0000 C   0  0  0  0  0  0  0  0  0  0  0  0
    0.7500    3.2860    0.0000 C   0  0  0  0  0  0  0  0  0  0  0  0
    1.0838    4.7484    0.0000 O   0  0  0  0  0  0  0  0  0  0  0  0
   -0.7500    3.2860    0.0000 O   0  0  0  0  0  0  0  0  0  0  0  0
   -2.1015    2.6351    0.0000 C   0  0  0  0  0  0  0  0  0  0  0  0
   -3.0367    3.8079    0.0000 C   0  0  0  0  0  0  0  0  0  0  0  0
   -2.4887    5.2042    0.0000 C   0  0  0  0  0  0  0  0  0  0  0  0
   -3.0367    1.4624    0.0000 C   0  0  0  0  0  0  0  0  0  0  0  0
   -4.5199    1.2388    0.0000 C   0  0  0  0  0  0  0  0  0  0  0  0
   -3.7867    2.7614    0.0000 O   0  0  0  0  0  0  0  0  0  0  0  0
   -3.3705    0.0000    0.0000 C   0  0  0  0  0  0  0  0  0  0  0  0
   -4.8705    0.0000    0.0000 O   0  0  0  0  0  0  0  0  0  0  0  0
   -3.0367   -1.4624    0.0000 C   0  0  0  0  0  0  0  0  0  0  0  0
   -4.3881   -2.1132    0.0000 C   0  0  0  0  0  0  0  0  0  0  0  0
   -2.1015   -2.6351    0.0000 C   0  0  0  0  0  0  0  0  0  0  0  0
   -2.9699   -3.2997    0.0000 O   0  0  0  0  0  0  0  0  0  0  0  0
   -0.7500   -3.2860    0.0000 C   0  0  0  0  0  0  0  0  0  0  0  0
   -1.0838   -4.7484    0.0000 C   0  0  0  0  0  0  0  0  0  0  0  0
    0.7500   -3.2860    0.0000 C   0  0  0  0  0  0  0  0  0  0  0  0
    2.1015   -2.6351    0.0000 C   0  0  0  0  0  0  0  0  0  0  0  0
    3.5348   -3.0773    0.0000 C   0  0  0  0  0  0  0  0  0  0  0  0
    1.9669   -3.4209    0.0000 O   0  0  0  0  0  0  0  0  0  0  0  0
    5.8517   -4.2598    0.0000 O   0  0  0  0  0  0  0  0  0  0  0  0
    5.9638   -5.7557    0.0000 C   0  0  0  0  0  0  0  0  0  0  0  0
    7.3152   -6.4065    0.0000 C   0  0  0  0  0  0  0  0  0  0  0  0
    4.7244   -6.6006    0.0000 C   0  0  0  0  0  0  0  0  0  0  0  0
    3.3730   -5.9498    0.0000 C   0  0  0  0  0  0  0  0  0  0  0  0
    2.1336   -6.7948    0.0000 N   0  0  0  0  0  0  0  0  0  0  0  0
    2.2457   -8.2906    0.0000 C   0  0  0  0  0  0  0  0  0  0  0  0
    0.7129   -6.3136    0.0000 C   0  0  0  0  0  0  0  0  0  0  0  0
  1  2  1  0
  2  3  1  0
  3  4  2  0
  3  5  1  0
  5  6  1  0
  6  7  1  0
  7  8  1  0
  8  9  2  0
  8 10  1  0
 10 11  1  0
 11 12  1  0
 12 13  1  0
 13 14  1  0
 14 15  1  0
 15 16  1  0
 15 17  1  0
 17 18  1  0
 18 19  1  0
 19 20  1  0
 20 21  1  0
 21 22  1  0
 21 23  1  0
 23 24  1  0
 21 25  1  0
 25 26  1  0
 25 27  1  0
 27 28  1  0
 27 29  1  0
 17 30  1  0
 30 31  1  0
 30 32  1  0
 32 33  2  0
 32 34  1  0
 34 35  1  0
 35 36  1  0
 36 37  1  0
 35 38  1  0
 38 39  1  0
 38 40  1  0
 38 41  1  0
 41 42  1  0
 41 43  1  0
 43 44  1  0
 43 45  1  0
 45 46  2  0
 45 47  1  0
 47 48  1  0
 47 49  1  0
 49 50  1  0
 50 51  1  0
 50 52  1  0
 12 53  1  0
 53 54  1  0
 54 55  1  0
 54 56  1  0
 56 57  1  0
 57 58  1  0
 58 59  1  0
 58 60  1  0
 57 11  1  0
 50 14  1  0
 29 19  1  0
M  END
>  <ChEMBL_IDs>  (560) 
nan

>  <target_organism>  (560) 
nan

>  <target_molecule_pref_name>  (560) 
nan

>  <# Known Targets>  (560) 
nan

>  <Known Targets>  (560) 
nan

>  <smiles>  (560) 
CCC(=O)OCCC(=O)OC1C(OC2C(C)C(OC3CC(C)(OC)C(O)C(C)O3)C(C)C(=O)OC(CC)C(C)(O)C(O)C(C)C(=O)C(C)CC2(C)O)OC(C)CC1N(C)C

$$$$

     RDKit          2D

 60 62  0  0  0  0  0  0  0  0999 V2000
   -5.0000   -0.7210    0.0000 C   0  0  0  0  0  0  0  0  0  0  0  0
   -4.7357   -2.0449    0.0000 C   0  0  0  0  0  0  0  0  0  0  0  0
   -3.3843   -2.6957    0.0000 O   0  0  0  0  0  0  0  0  0  0  0  0
   -3.2722   -4.1915    0.0000 C   0  0  0  0  0  0  0  0  0  0  0  0
   -4.5116   -5.0365    0.0000 O   0  0  0  0  0  0  0  0  0  0  0  0
   -1.9207   -4.8423    0.0000 C   0  0  0  0  0  0  0  0  0  0  0  0
   -0.6814   -3.9973    0.0000 C   0  0  0  0  0  0  0  0  0  0  0  0
    0.6701   -4.6482    0.0000 C   0  0  0  0  0  0  0  0  0  0  0  0
    0.5990   -6.1465    0.0000 O   0  0  0  0  0  0  0  0  0  0  0  0
    1.9094   -3.8032    0.0000 O   0  0  0  0  0  0  0  0  0  0  0  0
    3.2609   -4.4540    0.0000 C   0  0  0  0  0  0  0  0  0  0  0  0
    4.5002   -3.6090    0.0000 C   0  0  0  0  0  0  0  0  0  0  0  0
    4.3881   -2.1132    0.0000 O   0  0  0  0  0  0  0  0  0  0  0  0
    3.0367   -1.4624    0.0000 C   0  0  0  0  0  0  0  0  0  0  0  0
    3.3705    0.0000    0.0000 C   0  0  0  0  0  0  0  0  0  0  0  0
    4.8705    0.0000    0.0000 C   0  0  0  0  0  0  0  0  0  0  0  0
    3.0367    1.4624    0.0000 C   0  0  0  0  0  0  0  0  0  0  0  0
    4.3881    2.1132    0.0000 O   0  0  0  0  0  0  0  0  0  0  0  0
    4.5002    3.6090    0.0000 C   0  0  0  0  0  0  0  0  0  0  0  0
    5.8517    4.2598    0.0000 C   0  0  0  0  0  0  0  0  0  0  0  0
    5.9638    5.7557    0.0000 C   0  0  0  0  0  0  0  0  0  0  0  0
    6.5807    7.1229    0.0000 C   0  0  0  0  0  0  0  0  0  0  0  0
    7.4174    5.3855    0.0000 O   0  0  0  0  0  0  0  0  0  0  0  0
    7.8237    3.9416    0.0000 C   0  0  0  0  0  0  0  0  0  0  0  0
    4.7244    6.6006    0.0000 C   0  0  0  0  0  0  0  0  0  0  0  0
    4.8365    8.0964    0.0000 O   0  0  0  0  0  0  0  0  0  0  0  0
    3.3730    5.9498    0.0000 C   0  0  0  0  0  0  0  0  0  0  0  0
    2.1336    6.7948    0.0000 C   0  0  0  0  0  0  0  0  0  0  0  0
    3.2609    4.4540    0.0000 O   0  0  0  0  0  0  0  0  0  0  0  0
    2.1015    2.6351    0.0000 C   0  0  0  0  0  0  0  0  0  0  0  0
    2.6628    3.8629    0.0000 C   0  0  0  0  0  0  0  0  0  0  0  0
    0.7500    3.2860    0.0000 C   0  0  0  0  0  0  0  0  0  0  0  0
    1.0838    4.7484    0.0000 O   0  0  0  0  0  0  0  0  0  0  0  0
   -0.7500    3.2860    0.0000 O   0  0  0  0  0  0  0  0  0  0  0  0
   -2.1015    2.6351    0.0000 C   0  0  0  0  0  0  0  0  0  0  0  0
   -3.0367    3.8079    0.0000 C   0  0  0  0  0  0  0  0  0  0  0  0
   -2.4887    5.2042    0.0000 C   0  0  0  0  0  0  0  0  0  0  0  0
   -3.0367    1.4624    0.0000 C   0  0  0  0  0  0  0  0  0  0  0  0
   -4.5199    1.2388    0.0000 C   0  0  0  0  0  0  0  0  0  0  0  0
   -3.7867    2.7614    0.0000 O   0  0  0  0  0  0  0  0  0  0  0  0
   -3.3705    0.0000    0.0000 C   0  0  0  0  0  0  0  0  0  0  0  0
   -4.7104    0.1646    0.0000 O   0  0  0  0  0  0  0  0  0  0  0  0
   -3.0367   -1.4624    0.0000 C   0  0  0  0  0  0  0  0  0  0  0  0
   -4.1074   -1.6843    0.0000 C   0  0  0  0  0  0  0  0  0  0  0  0
   -2.1015   -2.6351    0.0000 C   0  0  0  0  0  0  0  0  0  0  0  0
   -2.7345   -3.1196    0.0000 O   0  0  0  0  0  0  0  0  0  0  0  0
   -0.7500   -3.2860    0.0000 C   0  0  0  0  0  0  0  0  0  0  0  0
   -1.0838   -4.7484    0.0000 C   0  0  0  0  0  0  0  0  0  0  0  0
    0.7500   -3.2860    0.0000 C   0  0  0  0  0  0  0  0  0  0  0  0
    2.1015   -2.6351    0.0000 C   0  0  0  0  0  0  0  0  0  0  0  0
    3.5348   -3.0773    0.0000 C   0  0  0  0  0  0  0  0  0  0  0  0
    1.8483   -4.1136    0.0000 O   0  0  0  0  0  0  0  0  0  0  0  0
    5.8517   -4.2598    0.0000 O   0  0  0  0  0  0  0  0  0  0  0  0
    5.9638   -5.7557    0.0000 C   0  0  0  0  0  0  0  0  0  0  0  0
    7.3152   -6.4065    0.0000 C   0  0  0  0  0  0  0  0  0  0  0  0
    4.7244   -6.6006    0.0000 C   0  0  0  0  0  0  0  0  0  0  0  0
    3.3730   -5.9498    0.0000 C   0  0  0  0  0  0  0  0  0  0  0  0
    2.1336   -6.7948    0.0000 N   0  0  0  0  0  0  0  0  0  0  0  0
    2.2457   -8.2906    0.0000 C   0  0  0  0  0  0  0  0  0  0  0  0
    0.7129   -6.3136    0.0000 C   0  0  0  0  0  0  0  0  0  0  0  0
  1  2  1  0
  2  3  1  0
  3  4  1  0
  4  5  2  0
  4  6  1  0
  6  7  1  0
  7  8  1  0
  8  9  2  0
  8 10  1  0
 10 11  1  0
 11 12  1  0
 12 13  1  0
 13 14  1  0
 14 15  1  0
 15 16  1  0
 15 17  1  0
 17 18  1  0
 18 19  1  0
 19 20  1  0
 20 21  1  0
 21 22  1  0
 21 23  1  0
 23 24  1  0
 21 25  1  0
 25 26  1  0
 25 27  1  0
 27 28  1  0
 27 29  1  0
 17 30  1  0
 30 31  1  0
 30 32  1  0
 32 33  2  0
 32 34  1  0
 34 35  1  0
 35 36  1  0
 36 37  1  0
 35 38  1  0
 38 39  1  0
 38 40  1  0
 38 41  1  0
 41 42  1  0
 41 43  1  0
 43 44  1  0
 43 45  1  0
 45 46  2  0
 45 47  1  0
 47 48  1  0
 47 49  1  0
 49 50  1  0
 50 51  1  0
 50 52  1  0
 12 53  1  0
 53 54  1  0
 54 55  1  0
 54 56  1  0
 56 57  1  0
 57 58  1  0
 58 59  1  0
 58 60  1  0
 57 11  1  0
 50 14  1  0
 29 19  1  0
M  END
>  <ChEMBL_IDs>  (561) 
nan

>  <target_organism>  (561) 
nan

>  <target_molecule_pref_name>  (561) 
nan

>  <# Known Targets>  (561) 
nan

>  <Known Targets>  (561) 
nan

>  <smiles>  (561) 
CCOC(=O)CCC(=O)OC1C(OC2C(C)C(OC3CC(C)(OC)C(O)C(C)O3)C(C)C(=O)OC(CC)C(C)(O)C(O)C(C)C(=O)C(C)CC2(C)O)OC(C)CC1N(C)C

$$$$

     RDKit          2D

 59 61  0  0  0  0  0  0  0  0999 V2000
    1.4547  -15.1188    0.0000 C   0  0  0  0  0  0  0  0  0  0  0  0
    1.3426  -13.6230    0.0000 C   0  0  0  0  0  0  0  0  0  0  0  0
    2.5820  -12.7780    0.0000 C   0  0  0  0  0  0  0  0  0  0  0  0
    2.4699  -11.2822    0.0000 C   0  0  0  0  0  0  0  0  0  0  0  0
    3.7093  -10.4372    0.0000 N   0  0  0  0  0  0  0  0  0  0  0  0
    3.5972   -8.9414    0.0000 C   0  0  0  0  0  0  0  0  0  0  0  0
    2.2457   -8.2906    0.0000 O   0  0  0  0  0  0  0  0  0  0  0  0
    4.8365   -8.0964    0.0000 O   0  0  0  0  0  0  0  0  0  0  0  0
    4.7244   -6.6006    0.0000 C   0  0  0  0  0  0  0  0  0  0  0  0
    3.3730   -5.9498    0.0000 C   0  0  0  0  0  0  0  0  0  0  0  0
    2.1336   -6.7948    0.0000 C   0  0  0  0  0  0  0  0  0  0  0  0
    3.2609   -4.4540    0.0000 O   0  0  0  0  0  0  0  0  0  0  0  0
    4.5002   -3.6090    0.0000 C   0  0  0  0  0  0  0  0  0  0  0  0
    4.3881   -2.1132    0.0000 O   0  0  0  0  0  0  0  0  0  0  0  0
    3.0367   -1.4624    0.0000 C   0  0  0  0  0  0  0  0  0  0  0  0
    3.3705    0.0000    0.0000 C   0  0  0  0  0  0  0  0  0  0  0  0
    4.6804   -0.3267    0.0000 C   0  0  0  0  0  0  0  0  0  0  0  0
    3.0367    1.4624    0.0000 C   0  0  0  0  0  0  0  0  0  0  0  0
    4.3881    2.1132    0.0000 O   0  0  0  0  0  0  0  0  0  0  0  0
    5.6275    1.2682    0.0000 C   0  0  0  0  0  0  0  0  0  0  0  0
    5.5154   -0.2276    0.0000 O   0  0  0  0  0  0  0  0  0  0  0  0
    6.7548   -1.0725    0.0000 C   0  0  0  0  0  0  0  0  0  0  0  0
    6.6427   -2.5684    0.0000 C   0  0  0  0  0  0  0  0  0  0  0  0
    8.1062   -0.4217    0.0000 C   0  0  0  0  0  0  0  0  0  0  0  0
    8.2183    1.0741    0.0000 C   0  0  0  0  0  0  0  0  0  0  0  0
    9.5698    1.7249    0.0000 N   0  0  0  0  0  0  0  0  0  0  0  0
   10.8091    0.8799    0.0000 C   0  0  0  0  0  0  0  0  0  0  0  0
    9.6819    3.2207    0.0000 C   0  0  0  0  0  0  0  0  0  0  0  0
    6.9790    1.9191    0.0000 C   0  0  0  0  0  0  0  0  0  0  0  0
    7.0910    3.4149    0.0000 O   0  0  0  0  0  0  0  0  0  0  0  0
    2.1015    2.6351    0.0000 C   0  0  0  0  0  0  0  0  0  0  0  0
    2.2135    4.1309    0.0000 C   0  0  0  0  0  0  0  0  0  0  0  0
    3.5348    3.0773    0.0000 O   0  0  0  0  0  0  0  0  0  0  0  0
    3.8686    4.5397    0.0000 C   0  0  0  0  0  0  0  0  0  0  0  0
    0.7500    3.2860    0.0000 C   0  0  0  0  0  0  0  0  0  0  0  0
   -0.7500    3.2860    0.0000 C   0  0  0  0  0  0  0  0  0  0  0  0
   -1.0838    4.7484    0.0000 C   0  0  0  0  0  0  0  0  0  0  0  0
   -2.1015    2.6351    0.0000 C   0  0  0  0  0  0  0  0  0  0  0  0
   -3.0367    3.8079    0.0000 O   0  0  0  0  0  0  0  0  0  0  0  0
   -3.0367    1.4624    0.0000 C   0  0  0  0  0  0  0  0  0  0  0  0
   -4.3881    2.1132    0.0000 C   0  0  0  0  0  0  0  0  0  0  0  0
   -3.3705    0.0000    0.0000 C   0  0  0  0  0  0  0  0  0  0  0  0
   -4.8705    0.0000    0.0000 O   0  0  0  0  0  0  0  0  0  0  0  0
   -3.0367   -1.4624    0.0000 C   0  0  0  0  0  0  0  0  0  0  0  0
   -3.7867   -2.7614    0.0000 C   0  0  0  0  0  0  0  0  0  0  0  0
   -4.5199   -1.2388    0.0000 O   0  0  0  0  0  0  0  0  0  0  0  0
   -2.1015   -2.6351    0.0000 C   0  0  0  0  0  0  0  0  0  0  0  0
   -3.0367   -3.8079    0.0000 C   0  0  0  0  0  0  0  0  0  0  0  0
   -4.5199   -3.5843    0.0000 C   0  0  0  0  0  0  0  0  0  0  0  0
   -0.7500   -3.2860    0.0000 O   0  0  0  0  0  0  0  0  0  0  0  0
    0.7500   -3.2860    0.0000 C   0  0  0  0  0  0  0  0  0  0  0  0
    1.0838   -4.7484    0.0000 O   0  0  0  0  0  0  0  0  0  0  0  0
    2.1015   -2.6351    0.0000 C   0  0  0  0  0  0  0  0  0  0  0  0
    2.6628   -3.8629    0.0000 C   0  0  0  0  0  0  0  0  0  0  0  0
    5.8517   -4.2598    0.0000 C   0  0  0  0  0  0  0  0  0  0  0  0
    5.9638   -5.7557    0.0000 C   0  0  0  0  0  0  0  0  0  0  0  0
    7.4174   -5.3855    0.0000 C   0  0  0  0  0  0  0  0  0  0  0  0
    6.5807   -7.1229    0.0000 O   0  0  0  0  0  0  0  0  0  0  0  0
    8.0733   -7.2723    0.0000 C   0  0  0  0  0  0  0  0  0  0  0  0
  1  2  1  0
  2  3  1  0
  3  4  1  0
  4  5  1  0
  5  6  1  0
  6  7  2  0
  6  8  1  0
  9  8  1  1
  9 10  1  0
 10 11  1  6
 10 12  1  0
 12 13  1  0
 13 14  1  1
 15 14  1  6
 15 16  1  0
 16 17  1  1
 16 18  1  0
 18 19  1  6
 20 19  1  1
 20 21  1  0
 21 22  1  0
 22 23  1  1
 22 24  1  0
 24 25  1  0
 25 26  1  1
 26 27  1  0
 26 28  1  0
 25 29  1  0
 29 30  1  6
 18 31  1  0
 31 32  1  6
 31 33  1  0
 33 34  1  0
 31 35  1  0
 35 36  1  0
 36 37  1  6
 36 38  1  0
 38 39  2  0
 38 40  1  0
 40 41  1  1
 40 42  1  0
 42 43  1  6
 42 44  1  0
 44 45  1  6
 44 46  1  0
 44 47  1  0
 47 48  1  6
 48 49  1  0
 47 50  1  0
 50 51  1  0
 51 52  2  0
 51 53  1  0
 53 54  1  1
 13 55  1  0
 55 56  1  0
 56 57  1  6
 56 58  1  0
 58 59  1  0
 56  9  1  0
 53 15  1  0
 29 20  1  0
M  END
>  <ChEMBL_IDs>  (562) 
CHEMBL1668164

>  <target_organism>  (562) 
None

>  <target_molecule_pref_name>  (562) 
nan

>  <# Known Targets>  (562) 
nan

>  <Known Targets>  (562) 
nan

>  <smiles>  (562) 
CCCCNC(=O)O[C@H]1[C@H](C)O[C@@H](O[C@H]2[C@H](C)[C@@H](O[C@@H]3O[C@H](C)C[C@H](N(C)C)[C@H]3O)[C@](C)(OC)C[C@@H](C)C(=O)[C@H](C)[C@@H](O)[C@](C)(O)[C@@H](CC)OC(=O)[C@@H]2C)C[C@@]1(C)OC

$$$$

     RDKit          2D

 59 61  0  0  0  0  0  0  0  0999 V2000
   10.1205    3.8971    0.0000 C   0  0  0  0  0  0  0  0  0  0  0  0
    9.3705    2.5981    0.0000 C   0  0  0  0  0  0  0  0  0  0  0  0
    7.8705    2.5981    0.0000 C   0  0  0  0  0  0  0  0  0  0  0  0
    7.1205    1.2990    0.0000 C   0  0  0  0  0  0  0  0  0  0  0  0
    5.6205    1.2990    0.0000 O   0  0  0  0  0  0  0  0  0  0  0  0
    4.8705    0.0000    0.0000 N   0  0  0  0  0  0  0  0  0  0  0  0
    3.3705    0.0000    0.0000 C   0  0  0  0  0  0  0  0  0  0  0  0
    3.0367   -1.4624    0.0000 C   0  0  0  0  0  0  0  0  0  0  0  0
    4.3881   -2.1132    0.0000 C   0  0  0  0  0  0  0  0  0  0  0  0
    2.1015   -2.6351    0.0000 C   0  0  0  0  0  0  0  0  0  0  0  0
    3.0367   -3.8079    0.0000 O   0  0  0  0  0  0  0  0  0  0  0  0
    0.7500   -3.2860    0.0000 C   0  0  0  0  0  0  0  0  0  0  0  0
    1.8496   -4.3062    0.0000 C   0  0  0  0  0  0  0  0  0  0  0  0
    0.2020   -4.6823    0.0000 O   0  0  0  0  0  0  0  0  0  0  0  0
   -0.7500   -3.2860    0.0000 C   0  0  0  0  0  0  0  0  0  0  0  0
   -1.0838   -4.7484    0.0000 C   0  0  0  0  0  0  0  0  0  0  0  0
   -2.5171   -5.1905    0.0000 C   0  0  0  0  0  0  0  0  0  0  0  0
   -2.1015   -2.6351    0.0000 O   0  0  0  0  0  0  0  0  0  0  0  0
   -3.0367   -1.4624    0.0000 C   0  0  0  0  0  0  0  0  0  0  0  0
   -4.3881   -2.1132    0.0000 O   0  0  0  0  0  0  0  0  0  0  0  0
   -3.3705    0.0000    0.0000 C   0  0  0  0  0  0  0  0  0  0  0  0
   -4.6804   -0.3267    0.0000 C   0  0  0  0  0  0  0  0  0  0  0  0
   -3.0367    1.4624    0.0000 C   0  0  0  0  0  0  0  0  0  0  0  0
   -4.3881    2.1132    0.0000 O   0  0  0  0  0  0  0  0  0  0  0  0
   -5.6275    1.2682    0.0000 C   0  0  0  0  0  0  0  0  0  0  0  0
   -6.9790    1.9191    0.0000 C   0  0  0  0  0  0  0  0  0  0  0  0
   -8.2183    1.0741    0.0000 C   0  0  0  0  0  0  0  0  0  0  0  0
   -9.6719    0.7039    0.0000 C   0  0  0  0  0  0  0  0  0  0  0  0
   -8.8352    2.4413    0.0000 O   0  0  0  0  0  0  0  0  0  0  0  0
  -10.3278    2.5907    0.0000 C   0  0  0  0  0  0  0  0  0  0  0  0
   -8.1062   -0.4217    0.0000 C   0  0  0  0  0  0  0  0  0  0  0  0
   -9.3456   -1.2667    0.0000 O   0  0  0  0  0  0  0  0  0  0  0  0
   -9.2335   -2.7625    0.0000 C   0  0  0  0  0  0  0  0  0  0  0  0
  -10.4728   -3.6075    0.0000 C   0  0  0  0  0  0  0  0  0  0  0  0
   -7.8820   -3.4133    0.0000 O   0  0  0  0  0  0  0  0  0  0  0  0
   -6.7548   -1.0725    0.0000 C   0  0  0  0  0  0  0  0  0  0  0  0
   -6.6427   -2.5684    0.0000 C   0  0  0  0  0  0  0  0  0  0  0  0
   -5.5154   -0.2276    0.0000 O   0  0  0  0  0  0  0  0  0  0  0  0
   -2.1015    2.6351    0.0000 C   0  0  0  0  0  0  0  0  0  0  0  0
   -3.0367    3.8079    0.0000 C   0  0  0  0  0  0  0  0  0  0  0  0
   -0.7500    3.2860    0.0000 C   0  0  0  0  0  0  0  0  0  0  0  0
   -1.0838    4.7484    0.0000 O   0  0  0  0  0  0  0  0  0  0  0  0
    0.0158    5.7686    0.0000 C   0  0  0  0  0  0  0  0  0  0  0  0
    1.4492    5.3265    0.0000 O   0  0  0  0  0  0  0  0  0  0  0  0
    2.5487    6.3467    0.0000 C   0  0  0  0  0  0  0  0  0  0  0  0
    3.9821    5.9046    0.0000 C   0  0  0  0  0  0  0  0  0  0  0  0
    2.2150    7.8091    0.0000 C   0  0  0  0  0  0  0  0  0  0  0  0
    0.7816    8.2513    0.0000 C   0  0  0  0  0  0  0  0  0  0  0  0
    0.4478    9.7137    0.0000 N   0  0  0  0  0  0  0  0  0  0  0  0
    1.5474   10.7339    0.0000 C   0  0  0  0  0  0  0  0  0  0  0  0
   -0.9855   10.1558    0.0000 C   0  0  0  0  0  0  0  0  0  0  0  0
   -0.3180    7.2310    0.0000 C   0  0  0  0  0  0  0  0  0  0  0  0
   -1.7513    7.6731    0.0000 O   0  0  0  0  0  0  0  0  0  0  0  0
    0.7500    3.2860    0.0000 C   0  0  0  0  0  0  0  0  0  0  0  0
    0.2020    4.6823    0.0000 C   0  0  0  0  0  0  0  0  0  0  0  0
    1.8496    4.3062    0.0000 O   0  0  0  0  0  0  0  0  0  0  0  0
    2.1015    2.6351    0.0000 C   0  0  0  0  0  0  0  0  0  0  0  0
    3.0367    1.4624    0.0000 C   0  0  0  0  0  0  0  0  0  0  0  0
    4.3881    2.1132    0.0000 C   0  0  0  0  0  0  0  0  0  0  0  0
  1  2  1  0
  2  3  1  0
  3  4  1  0
  4  5  1  0
  5  6  1  0
  6  7  2  0
  7  8  1  0
  8  9  1  6
  8 10  1  0
 10 11  1  1
 10 12  1  0
 12 13  1  1
 12 14  1  0
 12 15  1  0
 15 16  1  1
 16 17  1  0
 15 18  1  0
 18 19  1  0
 19 20  2  0
 19 21  1  0
 21 22  1  6
 21 23  1  0
 23 24  1  1
 25 24  1  6
 25 26  1  0
 26 27  1  0
 27 28  1  1
 27 29  1  0
 29 30  1  0
 27 31  1  0
 31 32  1  6
 32 33  1  0
 33 34  1  0
 33 35  2  0
 31 36  1  0
 36 37  1  1
 36 38  1  0
 23 39  1  0
 39 40  1  6
 39 41  1  0
 41 42  1  1
 43 42  1  1
 43 44  1  0
 44 45  1  0
 45 46  1  1
 45 47  1  0
 47 48  1  0
 48 49  1  1
 49 50  1  0
 49 51  1  0
 48 52  1  0
 52 53  1  6
 41 54  1  0
 54 55  1  1
 54 56  1  0
 54 57  1  0
 57 58  1  0
 58 59  1  1
 58  7  1  0
 38 25  1  0
 52 43  1  0
M  END
>  <ChEMBL_IDs>  (563) 
nan

>  <target_organism>  (563) 
nan

>  <target_molecule_pref_name>  (563) 
nan

>  <# Known Targets>  (563) 
nan

>  <Known Targets>  (563) 
nan

>  <smiles>  (563) 
CCCCO/N=C1/[C@H](C)[C@@H](O)[C@](C)(O)[C@@H](CC)OC(=O)[C@H](C)[C@@H](O[C@H]2C[C@@](C)(OC)[C@@H](OC(C)=O)[C@H](C)O2)[C@H](C)[C@@H](O[C@@H]2O[C@H](C)C[C@H](N(C)C)[C@H]2O)[C@](C)(O)C[C@H]1C

$$$$

     RDKit          2D

 58 60  0  0  0  0  0  0  0  0999 V2000
    5.8573   -1.2990    0.0000 C   0  0  0  0  0  0  0  0  0  0  0  0
    5.1073    0.0000    0.0000 C   0  0  0  0  0  0  0  0  0  0  0  0
    3.6073    0.0000    0.0000 C   0  0  0  0  0  0  0  0  0  0  0  0
    3.2954    1.4672    0.0000 O   0  0  0  0  0  0  0  0  0  0  0  0
    2.4138    2.6807    0.0000 C   0  0  0  0  0  0  0  0  0  0  0  0
    3.4175    3.7955    0.0000 O   0  0  0  0  0  0  0  0  0  0  0  0
    1.1147    3.4307    0.0000 C   0  0  0  0  0  0  0  0  0  0  0  0
    1.8302    4.5756    0.0000 C   0  0  0  0  0  0  0  0  0  0  0  0
   -0.3771    3.5875    0.0000 C   0  0  0  0  0  0  0  0  0  0  0  0
   -0.5339    5.0793    0.0000 O   0  0  0  0  0  0  0  0  0  0  0  0
    0.6797    5.9610    0.0000 C   0  0  0  0  0  0  0  0  0  0  0  0
    0.5229    7.4528    0.0000 C   0  0  0  0  0  0  0  0  0  0  0  0
    1.7364    8.3345    0.0000 C   0  0  0  0  0  0  0  0  0  0  0  0
    2.5752    9.5780    0.0000 C   0  0  0  0  0  0  0  0  0  0  0  0
    0.6574    9.3764    0.0000 O   0  0  0  0  0  0  0  0  0  0  0  0
    1.0203   10.8319    0.0000 C   0  0  0  0  0  0  0  0  0  0  0  0
    3.1067    7.7244    0.0000 C   0  0  0  0  0  0  0  0  0  0  0  0
    3.4696    9.1798    0.0000 O   0  0  0  0  0  0  0  0  0  0  0  0
    4.6031    7.6197    0.0000 C   0  0  0  0  0  0  0  0  0  0  0  0
    6.0994    7.5151    0.0000 C   0  0  0  0  0  0  0  0  0  0  0  0
    7.5958    7.4105    0.0000 C   0  0  0  0  0  0  0  0  0  0  0  0
    8.4345    8.6540    0.0000 N   0  0  0  0  0  0  0  0  0  0  0  0
    9.9309    8.5494    0.0000 C   0  0  0  0  0  0  0  0  0  0  0  0
    7.7770   10.0022    0.0000 C   0  0  0  0  0  0  0  0  0  0  0  0
    3.2635    6.2326    0.0000 C   0  0  0  0  0  0  0  0  0  0  0  0
    4.6338    5.6225    0.0000 C   0  0  0  0  0  0  0  0  0  0  0  0
    2.0500    5.3509    0.0000 O   0  0  0  0  0  0  0  0  0  0  0  0
   -1.8037    3.1240    0.0000 C   0  0  0  0  0  0  0  0  0  0  0  0
   -2.5537    4.4231    0.0000 C   0  0  0  0  0  0  0  0  0  0  0  0
   -2.9184    2.1203    0.0000 C   0  0  0  0  0  0  0  0  0  0  0  0
   -4.1319    3.0020    0.0000 O   0  0  0  0  0  0  0  0  0  0  0  0
   -5.5022    2.3919    0.0000 C   0  0  0  0  0  0  0  0  0  0  0  0
   -6.7157    3.2736    0.0000 O   0  0  0  0  0  0  0  0  0  0  0  0
   -8.0861    2.6635    0.0000 C   0  0  0  0  0  0  0  0  0  0  0  0
   -9.2996    3.5451    0.0000 C   0  0  0  0  0  0  0  0  0  0  0  0
   -8.2428    1.1717    0.0000 C   0  0  0  0  0  0  0  0  0  0  0  0
   -7.0293    0.2900    0.0000 C   0  0  0  0  0  0  0  0  0  0  0  0
   -7.1861   -1.2018    0.0000 N   0  0  0  0  0  0  0  0  0  0  0  0
   -8.5564   -1.8119    0.0000 C   0  0  0  0  0  0  0  0  0  0  0  0
   -5.9726   -2.0835    0.0000 C   0  0  0  0  0  0  0  0  0  0  0  0
   -5.6590    0.9001    0.0000 C   0  0  0  0  0  0  0  0  0  0  0  0
   -5.0760    0.3564    0.0000 O   0  0  0  0  0  0  0  0  0  0  0  0
   -3.5285    0.7500    0.0000 C   0  0  0  0  0  0  0  0  0  0  0  0
   -4.2257    0.3635    0.0000 C   0  0  0  0  0  0  0  0  0  0  0  0
   -4.5705    1.8290    0.0000 O   0  0  0  0  0  0  0  0  0  0  0  0
   -3.5285   -0.7500    0.0000 C   0  0  0  0  0  0  0  0  0  0  0  0
   -2.9184   -2.1203    0.0000 C   0  0  0  0  0  0  0  0  0  0  0  0
   -4.1319   -3.0020    0.0000 C   0  0  0  0  0  0  0  0  0  0  0  0
   -1.8037   -3.1240    0.0000 C   0  0  0  0  0  0  0  0  0  0  0  0
   -0.3771   -3.5875    0.0000 N   0  0  0  0  0  0  0  0  0  0  0  0
   -0.5339   -5.0793    0.0000 C   0  0  0  0  0  0  0  0  0  0  0  0
    1.1147   -3.4307    0.0000 C   0  0  0  0  0  0  0  0  0  0  0  0
    1.5782   -4.8573    0.0000 C   0  0  0  0  0  0  0  0  0  0  0  0
    2.4138   -2.6807    0.0000 C   0  0  0  0  0  0  0  0  0  0  0  0
    3.4175   -3.7955    0.0000 O   0  0  0  0  0  0  0  0  0  0  0  0
    3.2954   -1.4672    0.0000 C   0  0  0  0  0  0  0  0  0  0  0  0
    4.7726   -1.2067    0.0000 C   0  0  0  0  0  0  0  0  0  0  0  0
    4.0903   -2.7393    0.0000 O   0  0  0  0  0  0  0  0  0  0  0  0
  1  2  1  0
  3  2  1  6
  3  4  1  0
  4  5  1  0
  5  6  2  0
  5  7  1  0
  7  8  1  1
  7  9  1  0
  9 10  1  6
 11 10  1  1
 11 12  1  0
 12 13  1  0
 13 14  1  6
 13 15  1  0
 15 16  1  0
 13 17  1  0
 17 18  1  6
 17 19  1  0
 19 20  3  0
 20 21  1  0
 21 22  1  0
 22 23  1  0
 22 24  1  0
 17 25  1  0
 25 26  1  6
 25 27  1  0
  9 28  1  0
 28 29  1  1
 28 30  1  0
 30 31  1  6
 32 31  1  1
 32 33  1  0
 33 34  1  0
 34 35  1  1
 34 36  1  0
 36 37  1  0
 37 38  1  1
 38 39  1  0
 38 40  1  0
 37 41  1  0
 41 42  1  6
 30 43  1  0
 43 44  1  6
 43 45  1  0
 43 46  1  0
 46 47  1  0
 47 48  1  6
 47 49  1  0
 49 50  1  0
 50 51  1  0
 50 52  1  0
 52 53  1  1
 52 54  1  0
 54 55  1  6
 54 56  1  0
 56 57  1  6
 56 58  1  0
 56  3  1  0
 27 11  1  0
 41 32  1  0
M  END
>  <ChEMBL_IDs>  (564) 
CHEMBL293566

>  <target_organism>  (564) 
None

>  <target_molecule_pref_name>  (564) 
nan

>  <# Known Targets>  (564) 
nan

>  <Known Targets>  (564) 
nan

>  <smiles>  (564) 
CC[C@H]1OC(=O)[C@H](C)[C@@H](O[C@H]2C[C@@](C)(OC)[C@@](O)(C#CCN(C)C)[C@H](C)O2)[C@H](C)[C@@H](O[C@@H]2O[C@H](C)C[C@H](N(C)C)[C@H]2O)[C@](C)(O)C[C@@H](C)CN(C)[C@H](C)[C@@H](O)[C@]1(C)O

$$$$

     RDKit          2D

 58 60  0  0  0  0  0  0  0  0999 V2000
   12.3705    5.1962    0.0000 C   0  0  0  0  0  0  0  0  0  0  0  0
   11.6205    3.8971    0.0000 C   0  0  0  0  0  0  0  0  0  0  0  0
   10.1205    3.8971    0.0000 C   0  0  0  0  0  0  0  0  0  0  0  0
    9.3705    2.5981    0.0000 C   0  0  0  0  0  0  0  0  0  0  0  0
    7.8705    2.5981    0.0000 C   0  0  0  0  0  0  0  0  0  0  0  0
    7.1205    1.2990    0.0000 C   0  0  0  0  0  0  0  0  0  0  0  0
    5.6205    1.2990    0.0000 O   0  0  0  0  0  0  0  0  0  0  0  0
    4.8705    0.0000    0.0000 N   0  0  0  0  0  0  0  0  0  0  0  0
    3.3705    0.0000    0.0000 C   0  0  0  0  0  0  0  0  0  0  0  0
    3.0367   -1.4624    0.0000 C   0  0  0  0  0  0  0  0  0  0  0  0
    4.3881   -2.1132    0.0000 C   0  0  0  0  0  0  0  0  0  0  0  0
    2.1015   -2.6351    0.0000 C   0  0  0  0  0  0  0  0  0  0  0  0
    3.0367   -3.8079    0.0000 O   0  0  0  0  0  0  0  0  0  0  0  0
    0.7500   -3.2860    0.0000 C   0  0  0  0  0  0  0  0  0  0  0  0
    1.8496   -4.3062    0.0000 C   0  0  0  0  0  0  0  0  0  0  0  0
    0.2020   -4.6823    0.0000 O   0  0  0  0  0  0  0  0  0  0  0  0
   -0.7500   -3.2860    0.0000 C   0  0  0  0  0  0  0  0  0  0  0  0
   -1.0838   -4.7484    0.0000 C   0  0  0  0  0  0  0  0  0  0  0  0
   -2.5171   -5.1905    0.0000 C   0  0  0  0  0  0  0  0  0  0  0  0
   -2.1015   -2.6351    0.0000 O   0  0  0  0  0  0  0  0  0  0  0  0
   -3.0367   -1.4624    0.0000 C   0  0  0  0  0  0  0  0  0  0  0  0
   -4.3881   -2.1132    0.0000 O   0  0  0  0  0  0  0  0  0  0  0  0
   -3.3705    0.0000    0.0000 C   0  0  0  0  0  0  0  0  0  0  0  0
   -4.6804   -0.3267    0.0000 C   0  0  0  0  0  0  0  0  0  0  0  0
   -3.0367    1.4624    0.0000 C   0  0  0  0  0  0  0  0  0  0  0  0
   -4.3881    2.1132    0.0000 O   0  0  0  0  0  0  0  0  0  0  0  0
   -5.6275    1.2682    0.0000 C   0  0  0  0  0  0  0  0  0  0  0  0
   -6.9790    1.9191    0.0000 C   0  0  0  0  0  0  0  0  0  0  0  0
   -8.2183    1.0741    0.0000 C   0  0  0  0  0  0  0  0  0  0  0  0
   -9.6719    0.7039    0.0000 C   0  0  0  0  0  0  0  0  0  0  0  0
   -8.8352    2.4413    0.0000 O   0  0  0  0  0  0  0  0  0  0  0  0
  -10.3278    2.5907    0.0000 C   0  0  0  0  0  0  0  0  0  0  0  0
   -8.1062   -0.4217    0.0000 C   0  0  0  0  0  0  0  0  0  0  0  0
   -9.3456   -1.2667    0.0000 O   0  0  0  0  0  0  0  0  0  0  0  0
   -6.7548   -1.0725    0.0000 C   0  0  0  0  0  0  0  0  0  0  0  0
   -6.6427   -2.5684    0.0000 C   0  0  0  0  0  0  0  0  0  0  0  0
   -5.5154   -0.2276    0.0000 O   0  0  0  0  0  0  0  0  0  0  0  0
   -2.1015    2.6351    0.0000 C   0  0  0  0  0  0  0  0  0  0  0  0
   -3.0367    3.8079    0.0000 C   0  0  0  0  0  0  0  0  0  0  0  0
   -0.7500    3.2860    0.0000 C   0  0  0  0  0  0  0  0  0  0  0  0
   -1.0838    4.7484    0.0000 O   0  0  0  0  0  0  0  0  0  0  0  0
    0.0158    5.7686    0.0000 C   0  0  0  0  0  0  0  0  0  0  0  0
    1.4492    5.3265    0.0000 O   0  0  0  0  0  0  0  0  0  0  0  0
    2.5487    6.3467    0.0000 C   0  0  0  0  0  0  0  0  0  0  0  0
    3.9821    5.9046    0.0000 C   0  0  0  0  0  0  0  0  0  0  0  0
    2.2150    7.8091    0.0000 C   0  0  0  0  0  0  0  0  0  0  0  0
    0.7816    8.2513    0.0000 C   0  0  0  0  0  0  0  0  0  0  0  0
    0.4478    9.7137    0.0000 N   0  0  0  0  0  0  0  0  0  0  0  0
    1.5474   10.7339    0.0000 C   0  0  0  0  0  0  0  0  0  0  0  0
   -0.9855   10.1558    0.0000 C   0  0  0  0  0  0  0  0  0  0  0  0
   -0.3180    7.2310    0.0000 C   0  0  0  0  0  0  0  0  0  0  0  0
   -1.7513    7.6731    0.0000 O   0  0  0  0  0  0  0  0  0  0  0  0
    0.7500    3.2860    0.0000 C   0  0  0  0  0  0  0  0  0  0  0  0
    0.2020    4.6823    0.0000 C   0  0  0  0  0  0  0  0  0  0  0  0
    1.8496    4.3062    0.0000 O   0  0  0  0  0  0  0  0  0  0  0  0
    2.1015    2.6351    0.0000 C   0  0  0  0  0  0  0  0  0  0  0  0
    3.0367    1.4624    0.0000 C   0  0  0  0  0  0  0  0  0  0  0  0
    4.3881    2.1132    0.0000 C   0  0  0  0  0  0  0  0  0  0  0  0
  1  2  1  0
  2  3  1  0
  3  4  1  0
  4  5  1  0
  5  6  1  0
  6  7  1  0
  7  8  1  0
  8  9  2  0
  9 10  1  0
 10 11  1  6
 10 12  1  0
 12 13  1  1
 12 14  1  0
 14 15  1  1
 14 16  1  0
 14 17  1  0
 17 18  1  1
 18 19  1  0
 17 20  1  0
 20 21  1  0
 21 22  2  0
 21 23  1  0
 23 24  1  6
 23 25  1  0
 25 26  1  1
 26 27  1  0
 27 28  1  0
 28 29  1  0
 29 30  1  1
 29 31  1  0
 31 32  1  0
 29 33  1  0
 33 34  1  6
 33 35  1  0
 35 36  1  1
 35 37  1  0
 25 38  1  0
 38 39  1  6
 38 40  1  0
 40 41  1  1
 42 41  1  1
 42 43  1  0
 43 44  1  0
 44 45  1  1
 44 46  1  0
 46 47  1  0
 47 48  1  1
 48 49  1  0
 48 50  1  0
 47 51  1  0
 51 52  1  6
 40 53  1  0
 53 54  1  1
 53 55  1  0
 53 56  1  0
 56 57  1  0
 57 58  1  1
 57  9  1  0
 37 27  1  0
 51 42  1  0
M  END
>  <ChEMBL_IDs>  (565) 
nan

>  <target_organism>  (565) 
nan

>  <target_molecule_pref_name>  (565) 
nan

>  <# Known Targets>  (565) 
nan

>  <Known Targets>  (565) 
nan

>  <smiles>  (565) 
CCCCCCO/N=C1/[C@H](C)[C@@H](O)[C@](C)(O)[C@@H](CC)OC(=O)[C@H](C)[C@@H](OC2C[C@@](C)(OC)[C@@H](O)[C@H](C)O2)[C@H](C)[C@@H](O[C@@H]2O[C@H](C)C[C@H](N(C)C)[C@H]2O)[C@](C)(O)C[C@H]1C

$$$$

     RDKit          2D

 59 61  0  0  0  0  0  0  0  0999 V2000
    5.6205   -1.2990    0.0000 C   0  0  0  0  0  0  0  0  0  0  0  0
    4.8705    0.0000    0.0000 C   0  0  0  0  0  0  0  0  0  0  0  0
    3.3705    0.0000    0.0000 C   0  0  0  0  0  0  0  0  0  0  0  0
    3.0367   -1.4624    0.0000 O   0  0  0  0  0  0  0  0  0  0  0  0
    2.1015   -2.6351    0.0000 C   0  0  0  0  0  0  0  0  0  0  0  0
    3.0367   -3.8079    0.0000 O   0  0  0  0  0  0  0  0  0  0  0  0
    0.7500   -3.2860    0.0000 C   0  0  0  0  0  0  0  0  0  0  0  0
    1.3600   -4.4903    0.0000 C   0  0  0  0  0  0  0  0  0  0  0  0
   -0.7500   -3.2860    0.0000 C   0  0  0  0  0  0  0  0  0  0  0  0
   -1.0838   -4.7484    0.0000 O   0  0  0  0  0  0  0  0  0  0  0  0
    0.0158   -5.7686    0.0000 C   0  0  0  0  0  0  0  0  0  0  0  0
   -0.3180   -7.2310    0.0000 C   0  0  0  0  0  0  0  0  0  0  0  0
    0.7816   -8.2513    0.0000 C   0  0  0  0  0  0  0  0  0  0  0  0
    1.4659   -9.5861    0.0000 C   0  0  0  0  0  0  0  0  0  0  0  0
   -0.4141   -9.1570    0.0000 O   0  0  0  0  0  0  0  0  0  0  0  0
   -0.2276  -10.6453    0.0000 C   0  0  0  0  0  0  0  0  0  0  0  0
    2.2150   -7.8091    0.0000 C   0  0  0  0  0  0  0  0  0  0  0  0
    3.3145   -8.8294    0.0000 O   0  0  0  0  0  0  0  0  0  0  0  0
    2.5487   -6.3467    0.0000 C   0  0  0  0  0  0  0  0  0  0  0  0
    3.9821   -5.9046    0.0000 C   0  0  0  0  0  0  0  0  0  0  0  0
    1.4492   -5.3265    0.0000 O   0  0  0  0  0  0  0  0  0  0  0  0
   -2.1015   -2.6351    0.0000 C   0  0  0  0  0  0  0  0  0  0  0  0
   -3.0367   -3.8079    0.0000 C   0  0  0  0  0  0  0  0  0  0  0  0
   -3.0367   -1.4624    0.0000 C   0  0  0  0  0  0  0  0  0  0  0  0
   -4.3881   -2.1132    0.0000 O   0  0  0  0  0  0  0  0  0  0  0  0
   -5.6275   -1.2682    0.0000 C   0  0  0  0  0  0  0  0  0  0  0  0
   -5.5154    0.2276    0.0000 O   0  0  0  0  0  0  0  0  0  0  0  0
   -6.7548    1.0725    0.0000 C   0  0  0  0  0  0  0  0  0  0  0  0
   -6.6427    2.5684    0.0000 C   0  0  0  0  0  0  0  0  0  0  0  0
   -8.1062    0.4217    0.0000 C   0  0  0  0  0  0  0  0  0  0  0  0
   -8.2183   -1.0741    0.0000 C   0  0  0  0  0  0  0  0  0  0  0  0
   -9.5698   -1.7249    0.0000 N   0  0  0  0  0  0  0  0  0  0  0  0
  -10.8091   -0.8799    0.0000 C   0  0  0  0  0  0  0  0  0  0  0  0
   -9.6819   -3.2207    0.0000 C   0  0  0  0  0  0  0  0  0  0  0  0
   -8.4425   -4.0657    0.0000 O   0  0  0  0  0  0  0  0  0  0  0  0
  -11.0333   -3.8715    0.0000 C   0  0  0  0  0  0  0  0  0  0  0  0
  -11.1454   -5.3673    0.0000 N   0  0  0  0  0  0  0  0  0  0  0  0
  -12.4969   -6.0182    0.0000 C   0  0  0  0  0  0  0  0  0  0  0  0
  -12.6090   -7.5140    0.0000 C   0  0  0  0  0  0  0  0  0  0  0  0
  -13.9604   -8.1648    0.0000 C   0  0  0  0  0  0  0  0  0  0  0  0
  -14.0725   -9.6606    0.0000 C   0  0  0  0  0  0  0  0  0  0  0  0
  -15.1998   -7.3198    0.0000 C   0  0  0  0  0  0  0  0  0  0  0  0
   -6.9790   -1.9191    0.0000 C   0  0  0  0  0  0  0  0  0  0  0  0
   -7.0910   -3.4149    0.0000 O   0  0  0  0  0  0  0  0  0  0  0  0
   -3.3705    0.0000    0.0000 C   0  0  0  0  0  0  0  0  0  0  0  0
   -4.6098   -0.8450    0.0000 C   0  0  0  0  0  0  0  0  0  0  0  0
   -4.6098    0.8450    0.0000 O   0  0  0  0  0  0  0  0  0  0  0  0
   -3.0367    1.4624    0.0000 C   0  0  0  0  0  0  0  0  0  0  0  0
   -2.1015    2.6351    0.0000 C   0  0  0  0  0  0  0  0  0  0  0  0
   -3.0367    3.8079    0.0000 C   0  0  0  0  0  0  0  0  0  0  0  0
   -0.7500    3.2860    0.0000 C   0  0  0  0  0  0  0  0  0  0  0  0
   -1.0838    4.7484    0.0000 O   0  0  0  0  0  0  0  0  0  0  0  0
    0.7500    3.2860    0.0000 C   0  0  0  0  0  0  0  0  0  0  0  0
    1.0838    4.7484    0.0000 C   0  0  0  0  0  0  0  0  0  0  0  0
    2.1015    2.6351    0.0000 C   0  0  0  0  0  0  0  0  0  0  0  0
    3.0367    3.8079    0.0000 O   0  0  0  0  0  0  0  0  0  0  0  0
    3.0367    1.4624    0.0000 C   0  0  0  0  0  0  0  0  0  0  0  0
    3.7867    2.7614    0.0000 C   0  0  0  0  0  0  0  0  0  0  0  0
    4.5199    1.2388    0.0000 O   0  0  0  0  0  0  0  0  0  0  0  0
  1  2  1  0
  3  2  1  1
  3  4  1  0
  4  5  1  0
  5  6  2  0
  5  7  1  0
  7  8  1  6
  7  9  1  0
  9 10  1  1
 11 10  1  6
 11 12  1  0
 12 13  1  0
 13 14  1  1
 13 15  1  0
 15 16  1  0
 13 17  1  0
 17 18  1  6
 17 19  1  0
 19 20  1  1
 19 21  1  0
  9 22  1  0
 22 23  1  6
 22 24  1  0
 24 25  1  1
 26 25  1  6
 26 27  1  0
 27 28  1  0
 28 29  1  6
 28 30  1  0
 30 31  1  0
 31 32  1  6
 32 33  1  0
 32 34  1  0
 34 35  2  0
 34 36  1  0
 36 37  1  0
 37 38  1  0
 38 39  1  0
 39 40  1  0
 40 41  1  0
 40 42  1  0
 31 43  1  0
 43 44  1  1
 24 45  1  0
 45 46  1  1
 45 47  1  0
 45 48  1  0
 48 49  1  0
 49 50  1  1
 49 51  1  0
 51 52  1  6
 51 53  1  0
 53 54  1  6
 53 55  1  0
 55 56  1  1
 55 57  1  0
 57 58  1  1
 57 59  1  0
 57  3  1  0
 21 11  1  0
 43 26  1  0
M  END
>  <ChEMBL_IDs>  (566) 
CHEMBL376274

>  <target_organism>  (566) 
Hepatitis C virus,None

>  <target_molecule_pref_name>  (566) 
nan

>  <# Known Targets>  (566) 
nan

>  <Known Targets>  (566) 
nan

>  <smiles>  (566) 
CC[C@H]1OC(=O)[C@H](C)[C@@H](O[C@H]2C[C@@](C)(OC)[C@@H](O)[C@H](C)O2)[C@H](C)[C@@H](O[C@H]2O[C@@H](C)C[C@@H](N(C)C(=O)CNCCC(C)C)[C@@H]2O)[C@](C)(O)C[C@@H](C)[C@H](O)[C@H](C)[C@@H](O)[C@]1(C)O

$$$$

     RDKit          2D

 59 61  0  0  0  0  0  0  0  0999 V2000
   12.6901   -8.5698    0.0000 C   0  0  0  0  0  0  0  0  0  0  0  0
   11.4765   -7.6881    0.0000 C   0  0  0  0  0  0  0  0  0  0  0  0
   11.6333   -6.1963    0.0000 C   0  0  0  0  0  0  0  0  0  0  0  0
   10.4198   -5.3146    0.0000 C   0  0  0  0  0  0  0  0  0  0  0  0
   10.5766   -3.8228    0.0000 N   0  0  0  0  0  0  0  0  0  0  0  0
    9.3631   -2.9412    0.0000 C   0  0  0  0  0  0  0  0  0  0  0  0
    7.9927   -3.5513    0.0000 O   0  0  0  0  0  0  0  0  0  0  0  0
    9.5199   -1.4494    0.0000 O   0  0  0  0  0  0  0  0  0  0  0  0
    8.3063   -0.5677    0.0000 C   0  0  0  0  0  0  0  0  0  0  0  0
    6.9360   -1.1778    0.0000 C   0  0  0  0  0  0  0  0  0  0  0  0
    6.7792   -2.6696    0.0000 C   0  0  0  0  0  0  0  0  0  0  0  0
    5.7225   -0.2961    0.0000 O   0  0  0  0  0  0  0  0  0  0  0  0
    5.8793    1.1956    0.0000 C   0  0  0  0  0  0  0  0  0  0  0  0
    4.6658    2.0773    0.0000 O   0  0  0  0  0  0  0  0  0  0  0  0
    3.2954    1.4672    0.0000 C   0  0  0  0  0  0  0  0  0  0  0  0
    3.6073    0.0000    0.0000 C   0  0  0  0  0  0  0  0  0  0  0  0
    4.9172   -0.3267    0.0000 C   0  0  0  0  0  0  0  0  0  0  0  0
    3.2954   -1.4672    0.0000 C   0  0  0  0  0  0  0  0  0  0  0  0
    4.6658   -2.0773    0.0000 O   0  0  0  0  0  0  0  0  0  0  0  0
    2.4138   -2.6807    0.0000 O   0  0  0  0  0  0  0  0  0  0  0  0
    1.1147   -3.4307    0.0000 C   0  0  0  0  0  0  0  0  0  0  0  0
    1.5782   -4.8573    0.0000 C   0  0  0  0  0  0  0  0  0  0  0  0
    0.5745   -5.9720    0.0000 C   0  0  0  0  0  0  0  0  0  0  0  0
   -0.3771   -3.5875    0.0000 C   0  0  0  0  0  0  0  0  0  0  0  0
    0.3271   -4.9120    0.0000 C   0  0  0  0  0  0  0  0  0  0  0  0
   -1.3412   -4.7366    0.0000 O   0  0  0  0  0  0  0  0  0  0  0  0
   -1.8037   -3.1240    0.0000 C   0  0  0  0  0  0  0  0  0  0  0  0
   -2.5537   -4.4231    0.0000 O   0  0  0  0  0  0  0  0  0  0  0  0
   -2.9184   -2.1203    0.0000 C   0  0  0  0  0  0  0  0  0  0  0  0
   -4.1319   -3.0020    0.0000 C   0  0  0  0  0  0  0  0  0  0  0  0
   -3.5285   -0.7500    0.0000 N   0  0  0  0  0  0  0  0  0  0  0  0
   -4.9957   -1.0619    0.0000 C   0  0  0  0  0  0  0  0  0  0  0  0
   -3.5285    0.7500    0.0000 C   0  0  0  0  0  0  0  0  0  0  0  0
   -2.9184    2.1203    0.0000 C   0  0  0  0  0  0  0  0  0  0  0  0
   -4.1319    3.0020    0.0000 C   0  0  0  0  0  0  0  0  0  0  0  0
   -1.8037    3.1240    0.0000 C   0  0  0  0  0  0  0  0  0  0  0  0
   -0.3771    3.5875    0.0000 C   0  0  0  0  0  0  0  0  0  0  0  0
   -1.3412    4.7366    0.0000 C   0  0  0  0  0  0  0  0  0  0  0  0
    0.3271    4.9120    0.0000 O   0  0  0  0  0  0  0  0  0  0  0  0
    1.1147    3.4307    0.0000 C   0  0  0  0  0  0  0  0  0  0  0  0
    1.5782    4.8573    0.0000 O   0  0  0  0  0  0  0  0  0  0  0  0
    3.0455    5.1692    0.0000 C   0  0  0  0  0  0  0  0  0  0  0  0
    4.0492    4.0545    0.0000 O   0  0  0  0  0  0  0  0  0  0  0  0
    5.5164    4.3663    0.0000 C   0  0  0  0  0  0  0  0  0  0  0  0
    6.5201    3.2516    0.0000 C   0  0  0  0  0  0  0  0  0  0  0  0
    5.9799    5.7929    0.0000 C   0  0  0  0  0  0  0  0  0  0  0  0
    4.9762    6.9077    0.0000 C   0  0  0  0  0  0  0  0  0  0  0  0
    5.4397    8.3342    0.0000 N   0  0  0  0  0  0  0  0  0  0  0  0
    6.9070    8.6461    0.0000 C   0  0  0  0  0  0  0  0  0  0  0  0
    4.4360    9.4490    0.0000 C   0  0  0  0  0  0  0  0  0  0  0  0
    3.5090    6.5958    0.0000 C   0  0  0  0  0  0  0  0  0  0  0  0
    2.5053    7.7105    0.0000 O   0  0  0  0  0  0  0  0  0  0  0  0
    2.4138    2.6807    0.0000 C   0  0  0  0  0  0  0  0  0  0  0  0
    3.5330    3.4356    0.0000 C   0  0  0  0  0  0  0  0  0  0  0  0
    7.2496    1.8058    0.0000 C   0  0  0  0  0  0  0  0  0  0  0  0
    8.4631    0.9241    0.0000 C   0  0  0  0  0  0  0  0  0  0  0  0
    9.1207    2.2723    0.0000 C   0  0  0  0  0  0  0  0  0  0  0  0
    9.9050    0.5106    0.0000 O   0  0  0  0  0  0  0  0  0  0  0  0
   10.9840    1.5526    0.0000 C   0  0  0  0  0  0  0  0  0  0  0  0
  1  2  1  0
  2  3  1  0
  3  4  1  0
  4  5  1  0
  5  6  1  0
  6  7  2  0
  6  8  1  0
  8  9  1  0
  9 10  1  0
 10 11  1  0
 10 12  1  0
 12 13  1  0
 13 14  1  0
 14 15  1  0
 15 16  1  0
 16 17  1  0
 16 18  1  0
 18 19  2  0
 18 20  1  0
 20 21  1  0
 21 22  1  0
 22 23  1  0
 21 24  1  0
 24 25  1  0
 24 26  1  0
 24 27  1  0
 27 28  1  0
 27 29  1  0
 29 30  1  0
 29 31  1  0
 31 32  1  0
 31 33  1  0
 33 34  1  0
 34 35  1  0
 34 36  1  0
 36 37  1  0
 37 38  1  0
 37 39  1  0
 37 40  1  0
 40 41  1  0
 41 42  1  0
 42 43  1  0
 43 44  1  0
 44 45  1  0
 44 46  1  0
 46 47  1  0
 47 48  1  0
 48 49  1  0
 48 50  1  0
 47 51  1  0
 51 52  1  0
 40 53  1  0
 53 54  1  0
 13 55  1  0
 55 56  1  0
 56 57  1  0
 56 58  1  0
 58 59  1  0
 56  9  1  0
 53 15  1  0
 51 42  1  0
M  END
>  <ChEMBL_IDs>  (567) 
nan

>  <target_organism>  (567) 
nan

>  <target_molecule_pref_name>  (567) 
nan

>  <# Known Targets>  (567) 
nan

>  <Known Targets>  (567) 
nan

>  <smiles>  (567) 
CCCCNC(=O)OC1C(C)OC(OC2C(C)C(=O)OC(CC)C(C)(O)C(O)C(C)N(C)CC(C)CC(C)(O)C(OC3OC(C)CC(N(C)C)C3O)C2C)CC1(C)OC

$$$$

     RDKit          2D

 57 59  0  0  0  0  0  0  0  0999 V2000
   11.6205   -3.8971    0.0000 C   0  0  0  0  0  0  0  0  0  0  0  0
   10.1205   -3.8971    0.0000 C   0  0  0  0  0  0  0  0  0  0  0  0
    9.3705   -2.5981    0.0000 C   0  0  0  0  0  0  0  0  0  0  0  0
    7.8705   -2.5981    0.0000 C   0  0  0  0  0  0  0  0  0  0  0  0
    7.1205   -1.2990    0.0000 C   0  0  0  0  0  0  0  0  0  0  0  0
    5.6205   -1.2990    0.0000 C   0  0  0  0  0  0  0  0  0  0  0  0
    4.8705    0.0000    0.0000 N   0  0  0  0  0  0  0  0  0  0  0  0
    3.3705    0.0000    0.0000 C   0  0  0  0  0  0  0  0  0  0  0  0
    3.0367   -1.4624    0.0000 C   0  0  0  0  0  0  0  0  0  0  0  0
    4.3881   -2.1132    0.0000 C   0  0  0  0  0  0  0  0  0  0  0  0
    2.1015   -2.6351    0.0000 C   0  0  0  0  0  0  0  0  0  0  0  0
    3.0367   -3.8079    0.0000 O   0  0  0  0  0  0  0  0  0  0  0  0
    0.7500   -3.2860    0.0000 C   0  0  0  0  0  0  0  0  0  0  0  0
    1.8496   -4.3062    0.0000 C   0  0  0  0  0  0  0  0  0  0  0  0
    0.2020   -4.6823    0.0000 O   0  0  0  0  0  0  0  0  0  0  0  0
   -0.7500   -3.2860    0.0000 C   0  0  0  0  0  0  0  0  0  0  0  0
   -1.0838   -4.7484    0.0000 C   0  0  0  0  0  0  0  0  0  0  0  0
   -2.5171   -5.1905    0.0000 C   0  0  0  0  0  0  0  0  0  0  0  0
   -2.1015   -2.6351    0.0000 O   0  0  0  0  0  0  0  0  0  0  0  0
   -3.0367   -1.4624    0.0000 C   0  0  0  0  0  0  0  0  0  0  0  0
   -4.3881   -2.1132    0.0000 O   0  0  0  0  0  0  0  0  0  0  0  0
   -3.3705    0.0000    0.0000 C   0  0  0  0  0  0  0  0  0  0  0  0
   -4.6804   -0.3267    0.0000 C   0  0  0  0  0  0  0  0  0  0  0  0
   -3.0367    1.4624    0.0000 C   0  0  0  0  0  0  0  0  0  0  0  0
   -4.3881    2.1132    0.0000 O   0  0  0  0  0  0  0  0  0  0  0  0
   -5.6275    1.2682    0.0000 C   0  0  0  0  0  0  0  0  0  0  0  0
   -6.9790    1.9191    0.0000 C   0  0  0  0  0  0  0  0  0  0  0  0
   -8.2183    1.0741    0.0000 C   0  0  0  0  0  0  0  0  0  0  0  0
   -9.6719    0.7039    0.0000 C   0  0  0  0  0  0  0  0  0  0  0  0
   -8.8352    2.4413    0.0000 O   0  0  0  0  0  0  0  0  0  0  0  0
  -10.3278    2.5907    0.0000 C   0  0  0  0  0  0  0  0  0  0  0  0
   -8.1062   -0.4217    0.0000 C   0  0  0  0  0  0  0  0  0  0  0  0
   -9.3456   -1.2667    0.0000 O   0  0  0  0  0  0  0  0  0  0  0  0
   -6.7548   -1.0725    0.0000 C   0  0  0  0  0  0  0  0  0  0  0  0
   -6.6427   -2.5684    0.0000 C   0  0  0  0  0  0  0  0  0  0  0  0
   -5.5154   -0.2276    0.0000 O   0  0  0  0  0  0  0  0  0  0  0  0
   -2.1015    2.6351    0.0000 C   0  0  0  0  0  0  0  0  0  0  0  0
   -3.0367    3.8079    0.0000 C   0  0  0  0  0  0  0  0  0  0  0  0
   -0.7500    3.2860    0.0000 C   0  0  0  0  0  0  0  0  0  0  0  0
   -1.0838    4.7484    0.0000 O   0  0  0  0  0  0  0  0  0  0  0  0
    0.0158    5.7686    0.0000 C   0  0  0  0  0  0  0  0  0  0  0  0
    1.4492    5.3265    0.0000 O   0  0  0  0  0  0  0  0  0  0  0  0
    2.5487    6.3467    0.0000 C   0  0  0  0  0  0  0  0  0  0  0  0
    3.9821    5.9046    0.0000 C   0  0  0  0  0  0  0  0  0  0  0  0
    2.2150    7.8091    0.0000 C   0  0  0  0  0  0  0  0  0  0  0  0
    0.7816    8.2513    0.0000 C   0  0  0  0  0  0  0  0  0  0  0  0
    0.4478    9.7137    0.0000 N   0  0  0  0  0  0  0  0  0  0  0  0
    1.5474   10.7339    0.0000 C   0  0  0  0  0  0  0  0  0  0  0  0
   -0.9855   10.1558    0.0000 C   0  0  0  0  0  0  0  0  0  0  0  0
   -0.3180    7.2310    0.0000 C   0  0  0  0  0  0  0  0  0  0  0  0
   -1.7513    7.6731    0.0000 O   0  0  0  0  0  0  0  0  0  0  0  0
    0.7500    3.2860    0.0000 C   0  0  0  0  0  0  0  0  0  0  0  0
    0.2020    4.6823    0.0000 C   0  0  0  0  0  0  0  0  0  0  0  0
    1.8496    4.3062    0.0000 O   0  0  0  0  0  0  0  0  0  0  0  0
    2.1015    2.6351    0.0000 C   0  0  0  0  0  0  0  0  0  0  0  0
    3.0367    1.4624    0.0000 C   0  0  0  0  0  0  0  0  0  0  0  0
    4.3881    2.1132    0.0000 C   0  0  0  0  0  0  0  0  0  0  0  0
  1  2  1  0
  2  3  1  0
  3  4  1  0
  4  5  1  0
  5  6  1  0
  6  7  1  0
  8  7  1  6
  8  9  1  0
  9 10  1  6
  9 11  1  0
 11 12  1  1
 11 13  1  0
 13 14  1  1
 13 15  1  0
 13 16  1  0
 16 17  1  1
 17 18  1  0
 16 19  1  0
 19 20  1  0
 20 21  2  0
 20 22  1  0
 22 23  1  6
 22 24  1  0
 24 25  1  1
 25 26  1  0
 26 27  1  0
 27 28  1  0
 28 29  1  0
 28 30  1  0
 30 31  1  0
 28 32  1  0
 32 33  1  0
 32 34  1  0
 34 35  1  0
 34 36  1  0
 24 37  1  0
 37 38  1  6
 37 39  1  0
 39 40  1  1
 40 41  1  0
 41 42  1  0
 42 43  1  0
 43 44  1  0
 43 45  1  0
 45 46  1  0
 46 47  1  0
 47 48  1  0
 47 49  1  0
 46 50  1  0
 50 51  1  0
 39 52  1  0
 52 53  1  1
 52 54  1  0
 52 55  1  0
 55 56  1  0
 56 57  1  1
 56  8  1  0
 36 26  1  0
 50 41  1  0
M  END
>  <ChEMBL_IDs>  (568) 
CHEMBL318354

>  <target_organism>  (568) 
None

>  <target_molecule_pref_name>  (568) 
nan

>  <# Known Targets>  (568) 
nan

>  <Known Targets>  (568) 
nan

>  <smiles>  (568) 
CCCCCCN[C@@H]1[C@H](C)[C@@H](O)[C@](C)(O)[C@@H](CC)OC(=O)[C@H](C)[C@@H](OC2CC(C)(OC)C(O)C(C)O2)[C@H](C)[C@@H](OC2OC(C)CC(N(C)C)C2O)[C@](C)(O)C[C@H]1C

$$$$

     RDKit          2D

 57 59  0  0  0  0  0  0  0  0999 V2000
    9.3705   -2.5981    0.0000 C   0  0  0  0  0  0  0  0  0  0  0  0
    7.8705   -2.5981    0.0000 C   0  0  0  0  0  0  0  0  0  0  0  0
    7.1205   -1.2990    0.0000 C   0  0  0  0  0  0  0  0  0  0  0  0
    7.8705    0.0000    0.0000 C   0  0  0  0  0  0  0  0  0  0  0  0
    9.3705   -0.0000    0.0000 C   0  0  0  0  0  0  0  0  0  0  0  0
    5.6205   -1.2990    0.0000 C   0  0  0  0  0  0  0  0  0  0  0  0
    4.8705    0.0000    0.0000 N   0  0  0  0  0  0  0  0  0  0  0  0
    3.3705    0.0000    0.0000 C   0  0  0  0  0  0  0  0  0  0  0  0
    3.0367   -1.4624    0.0000 C   0  0  0  0  0  0  0  0  0  0  0  0
    4.3881   -2.1132    0.0000 C   0  0  0  0  0  0  0  0  0  0  0  0
    2.1015   -2.6351    0.0000 C   0  0  0  0  0  0  0  0  0  0  0  0
    3.0367   -3.8079    0.0000 O   0  0  0  0  0  0  0  0  0  0  0  0
    0.7500   -3.2860    0.0000 C   0  0  0  0  0  0  0  0  0  0  0  0
    1.8496   -4.3062    0.0000 C   0  0  0  0  0  0  0  0  0  0  0  0
    0.2020   -4.6823    0.0000 O   0  0  0  0  0  0  0  0  0  0  0  0
   -0.7500   -3.2860    0.0000 C   0  0  0  0  0  0  0  0  0  0  0  0
   -1.0838   -4.7484    0.0000 C   0  0  0  0  0  0  0  0  0  0  0  0
   -2.5171   -5.1905    0.0000 C   0  0  0  0  0  0  0  0  0  0  0  0
   -2.1015   -2.6351    0.0000 O   0  0  0  0  0  0  0  0  0  0  0  0
   -3.0367   -1.4624    0.0000 C   0  0  0  0  0  0  0  0  0  0  0  0
   -4.3881   -2.1132    0.0000 O   0  0  0  0  0  0  0  0  0  0  0  0
   -3.3705    0.0000    0.0000 C   0  0  0  0  0  0  0  0  0  0  0  0
   -4.6804   -0.3267    0.0000 C   0  0  0  0  0  0  0  0  0  0  0  0
   -3.0367    1.4624    0.0000 C   0  0  0  0  0  0  0  0  0  0  0  0
   -4.3881    2.1132    0.0000 O   0  0  0  0  0  0  0  0  0  0  0  0
   -5.6275    1.2682    0.0000 C   0  0  0  0  0  0  0  0  0  0  0  0
   -6.9790    1.9191    0.0000 C   0  0  0  0  0  0  0  0  0  0  0  0
   -8.2183    1.0741    0.0000 C   0  0  0  0  0  0  0  0  0  0  0  0
   -9.6719    0.7039    0.0000 C   0  0  0  0  0  0  0  0  0  0  0  0
   -8.8352    2.4413    0.0000 O   0  0  0  0  0  0  0  0  0  0  0  0
  -10.3278    2.5907    0.0000 C   0  0  0  0  0  0  0  0  0  0  0  0
   -8.1062   -0.4217    0.0000 C   0  0  0  0  0  0  0  0  0  0  0  0
   -9.3456   -1.2667    0.0000 O   0  0  0  0  0  0  0  0  0  0  0  0
   -6.7548   -1.0725    0.0000 C   0  0  0  0  0  0  0  0  0  0  0  0
   -6.6427   -2.5684    0.0000 C   0  0  0  0  0  0  0  0  0  0  0  0
   -5.5154   -0.2276    0.0000 O   0  0  0  0  0  0  0  0  0  0  0  0
   -2.1015    2.6351    0.0000 C   0  0  0  0  0  0  0  0  0  0  0  0
   -3.0367    3.8079    0.0000 C   0  0  0  0  0  0  0  0  0  0  0  0
   -0.7500    3.2860    0.0000 C   0  0  0  0  0  0  0  0  0  0  0  0
   -1.0838    4.7484    0.0000 O   0  0  0  0  0  0  0  0  0  0  0  0
    0.0158    5.7686    0.0000 C   0  0  0  0  0  0  0  0  0  0  0  0
    1.4492    5.3265    0.0000 O   0  0  0  0  0  0  0  0  0  0  0  0
    2.5487    6.3467    0.0000 C   0  0  0  0  0  0  0  0  0  0  0  0
    3.9821    5.9046    0.0000 C   0  0  0  0  0  0  0  0  0  0  0  0
    2.2150    7.8091    0.0000 C   0  0  0  0  0  0  0  0  0  0  0  0
    0.7816    8.2513    0.0000 C   0  0  0  0  0  0  0  0  0  0  0  0
    0.4478    9.7137    0.0000 N   0  0  0  0  0  0  0  0  0  0  0  0
    1.5474   10.7339    0.0000 C   0  0  0  0  0  0  0  0  0  0  0  0
   -0.9855   10.1558    0.0000 C   0  0  0  0  0  0  0  0  0  0  0  0
   -0.3180    7.2310    0.0000 C   0  0  0  0  0  0  0  0  0  0  0  0
   -1.7513    7.6731    0.0000 O   0  0  0  0  0  0  0  0  0  0  0  0
    0.7500    3.2860    0.0000 C   0  0  0  0  0  0  0  0  0  0  0  0
    0.2020    4.6823    0.0000 C   0  0  0  0  0  0  0  0  0  0  0  0
    1.8496    4.3062    0.0000 O   0  0  0  0  0  0  0  0  0  0  0  0
    2.1015    2.6351    0.0000 C   0  0  0  0  0  0  0  0  0  0  0  0
    3.0367    1.4624    0.0000 C   0  0  0  0  0  0  0  0  0  0  0  0
    4.3881    2.1132    0.0000 C   0  0  0  0  0  0  0  0  0  0  0  0
  1  2  1  0
  2  3  1  0
  3  4  1  0
  4  5  1  0
  3  6  1  0
  6  7  1  0
  8  7  1  6
  8  9  1  0
  9 10  1  6
  9 11  1  0
 11 12  1  1
 11 13  1  0
 13 14  1  1
 13 15  1  0
 13 16  1  0
 16 17  1  1
 17 18  1  0
 16 19  1  0
 19 20  1  0
 20 21  2  0
 20 22  1  0
 22 23  1  6
 22 24  1  0
 24 25  1  1
 25 26  1  0
 26 27  1  0
 27 28  1  0
 28 29  1  0
 28 30  1  0
 30 31  1  0
 28 32  1  0
 32 33  1  0
 32 34  1  0
 34 35  1  0
 34 36  1  0
 24 37  1  0
 37 38  1  6
 37 39  1  0
 39 40  1  1
 40 41  1  0
 41 42  1  0
 42 43  1  0
 43 44  1  0
 43 45  1  0
 45 46  1  0
 46 47  1  0
 47 48  1  0
 47 49  1  0
 46 50  1  0
 50 51  1  0
 39 52  1  0
 52 53  1  1
 52 54  1  0
 52 55  1  0
 55 56  1  0
 56 57  1  1
 56  8  1  0
 36 26  1  0
 50 41  1  0
M  END
>  <ChEMBL_IDs>  (569) 
CHEMBL105854

>  <target_organism>  (569) 
nan

>  <target_molecule_pref_name>  (569) 
nan

>  <# Known Targets>  (569) 
nan

>  <Known Targets>  (569) 
nan

>  <smiles>  (569) 
CCC(CC)CN[C@@H]1[C@H](C)[C@@H](O)[C@](C)(O)[C@@H](CC)OC(=O)[C@H](C)[C@@H](OC2CC(C)(OC)C(O)C(C)O2)[C@H](C)[C@@H](OC2OC(C)CC(N(C)C)C2O)[C@](C)(O)C[C@H]1C

$$$$

     RDKit          2D

 60 62  0  0  0  0  0  0  0  0999 V2000
    9.8444   -2.5981    0.0000 C   0  0  0  0  0  0  0  0  0  0  0  0
    8.3444   -2.5981    0.0000 C   0  0  0  0  0  0  0  0  0  0  0  0
    7.5944   -1.2990    0.0000 C   0  0  0  0  0  0  0  0  0  0  0  0
    6.0944   -1.2990    0.0000 C   0  0  0  0  0  0  0  0  0  0  0  0
    5.3444   -2.5981    0.0000 O   0  0  0  0  0  0  0  0  0  0  0  0
    5.3444    0.0000    0.0000 O   0  0  0  0  0  0  0  0  0  0  0  0
    3.8444    0.0000    0.0000 C   0  0  0  0  0  0  0  0  0  0  0  0
    3.5517   -1.4712    0.0000 C   0  0  0  0  0  0  0  0  0  0  0  0
    2.7184   -2.7184    0.0000 C   0  0  0  0  0  0  0  0  0  0  0  0
    3.7790   -3.7790    0.0000 O   0  0  0  0  0  0  0  0  0  0  0  0
    1.4712   -3.5517    0.0000 O   0  0  0  0  0  0  0  0  0  0  0  0
   -0.0000   -3.8444    0.0000 C   0  0  0  0  0  0  0  0  0  0  0  0
   -0.0000   -5.3444    0.0000 C   0  0  0  0  0  0  0  0  0  0  0  0
   -1.4712   -3.5517    0.0000 C   0  0  0  0  0  0  0  0  0  0  0  0
   -2.7184   -2.7184    0.0000 C   0  0  0  0  0  0  0  0  0  0  0  0
   -3.5517   -1.4712    0.0000 C   0  0  0  0  0  0  0  0  0  0  0  0
   -3.8444    0.0000    0.0000 C   0  0  0  0  0  0  0  0  0  0  0  0
   -3.5517    1.4712    0.0000 C   0  0  0  0  0  0  0  0  0  0  0  0
   -2.7184    2.7184    0.0000 C   0  0  0  0  0  0  0  0  0  0  0  0
   -3.7790    3.7790    0.0000 O   0  0  0  0  0  0  0  0  0  0  0  0
   -1.4712    3.5517    0.0000 C   0  0  0  0  0  0  0  0  0  0  0  0
   -2.0452    4.9376    0.0000 C   0  0  0  0  0  0  0  0  0  0  0  0
    0.0000    3.8444    0.0000 C   0  0  0  0  0  0  0  0  0  0  0  0
    1.4712    3.5517    0.0000 C   0  0  0  0  0  0  0  0  0  0  0  0
    2.0452    4.9376    0.0000 C   0  0  0  0  0  0  0  0  0  0  0  0
    3.5324    5.1333    0.0000 C   0  0  0  0  0  0  0  0  0  0  0  0
    4.1064    6.5192    0.0000 O   0  0  0  0  0  0  0  0  0  0  0  0
    2.7184    2.7184    0.0000 C   0  0  0  0  0  0  0  0  0  0  0  0
    3.7790    3.7790    0.0000 O   0  0  0  0  0  0  0  0  0  0  0  0
    5.2279    3.3908    0.0000 C   0  0  0  0  0  0  0  0  0  0  0  0
    5.6162    1.9419    0.0000 O   0  0  0  0  0  0  0  0  0  0  0  0
    7.0650    1.5537    0.0000 C   0  0  0  0  0  0  0  0  0  0  0  0
    7.4533    0.1048    0.0000 C   0  0  0  0  0  0  0  0  0  0  0  0
    8.1257    2.6144    0.0000 C   0  0  0  0  0  0  0  0  0  0  0  0
    9.5746    2.2261    0.0000 O   0  0  0  0  0  0  0  0  0  0  0  0
   10.6353    3.2868    0.0000 C   0  0  0  0  0  0  0  0  0  0  0  0
   12.0841    2.8986    0.0000 C   0  0  0  0  0  0  0  0  0  0  0  0
   13.1448    3.9592    0.0000 C   0  0  0  0  0  0  0  0  0  0  0  0
   14.5043    4.5931    0.0000 C   0  0  0  0  0  0  0  0  0  0  0  0
   14.0052    2.7305    0.0000 O   0  0  0  0  0  0  0  0  0  0  0  0
   12.7566    5.4081    0.0000 C   0  0  0  0  0  0  0  0  0  0  0  0
   13.8172    6.4688    0.0000 O   0  0  0  0  0  0  0  0  0  0  0  0
   13.4290    7.9177    0.0000 C   0  0  0  0  0  0  0  0  0  0  0  0
   11.9801    8.3059    0.0000 O   0  0  0  0  0  0  0  0  0  0  0  0
   14.4897    8.9783    0.0000 C   0  0  0  0  0  0  0  0  0  0  0  0
   14.1014   10.4272    0.0000 C   0  0  0  0  0  0  0  0  0  0  0  0
   15.1621   11.4879    0.0000 C   0  0  0  0  0  0  0  0  0  0  0  0
   12.6526   10.8154    0.0000 C   0  0  0  0  0  0  0  0  0  0  0  0
   11.3077    5.7963    0.0000 C   0  0  0  0  0  0  0  0  0  0  0  0
   10.9195    7.2452    0.0000 C   0  0  0  0  0  0  0  0  0  0  0  0
   10.2470    4.7357    0.0000 O   0  0  0  0  0  0  0  0  0  0  0  0
    7.7375    4.0632    0.0000 C   0  0  0  0  0  0  0  0  0  0  0  0
    8.7981    5.1239    0.0000 N   0  0  0  0  0  0  0  0  0  0  0  0
    8.4099    6.5728    0.0000 C   0  0  0  0  0  0  0  0  0  0  0  0
    9.5952    5.1100    0.0000 C   0  0  0  0  0  0  0  0  0  0  0  0
    6.2886    4.4515    0.0000 C   0  0  0  0  0  0  0  0  0  0  0  0
    5.9004    5.9004    0.0000 O   0  0  0  0  0  0  0  0  0  0  0  0
    3.5517    1.4712    0.0000 C   0  0  0  0  0  0  0  0  0  0  0  0
    4.9376    2.0452    0.0000 O   0  0  0  0  0  0  0  0  0  0  0  0
    6.1276    1.1321    0.0000 C   0  0  0  0  0  0  0  0  0  0  0  0
  1  2  1  0
  2  3  1  0
  3  4  1  0
  4  5  2  0
  4  6  1  0
  6  7  1  0
  7  8  1  0
  8  9  1  0
  9 10  2  0
  9 11  1  0
 11 12  1  0
 12 13  1  0
 12 14  1  0
 14 15  1  0
 15 16  2  0
 16 17  1  0
 17 18  2  0
 18 19  1  0
 19 20  2  0
 19 21  1  0
 21 22  1  0
 21 23  1  0
 23 24  1  0
 24 25  1  0
 25 26  1  0
 26 27  2  0
 24 28  1  0
 28 29  1  0
 29 30  1  0
 30 31  1  0
 31 32  1  0
 32 33  1  0
 32 34  1  0
 34 35  1  0
 35 36  1  0
 36 37  1  0
 37 38  1  0
 38 39  1  0
 38 40  1  0
 38 41  1  0
 41 42  1  0
 42 43  1  0
 43 44  2  0
 43 45  1  0
 45 46  1  0
 46 47  1  0
 46 48  1  0
 41 49  1  0
 49 50  1  0
 49 51  1  0
 34 52  1  0
 52 53  1  0
 53 54  1  0
 53 55  1  0
 52 56  1  0
 56 57  1  0
 28 58  1  0
 58 59  1  0
 59 60  1  0
 58  7  1  0
 56 30  1  0
 51 36  1  0
M  END
>  <ChEMBL_IDs>  (570) 
nan

>  <target_organism>  (570) 
nan

>  <target_molecule_pref_name>  (570) 
nan

>  <# Known Targets>  (570) 
nan

>  <Known Targets>  (570) 
nan

>  <smiles>  (570) 
CCCC(=O)OC1CC(=O)OC(C)C/C=C\C=C/C(=O)C(C)CC(CC=O)C(OC2OC(C)C(OC3CC(C)(O)C(OC(=O)CC(C)C)C(C)O3)C(N(C)C)C2O)C1OC

$$$$

     RDKit          2D

 60 62  0  0  0  0  0  0  0  0999 V2000
    9.8444   -2.5981    0.0000 C   0  0  0  0  0  0  0  0  0  0  0  0
    8.3444   -2.5981    0.0000 C   0  0  0  0  0  0  0  0  0  0  0  0
    7.5944   -1.2990    0.0000 C   0  0  0  0  0  0  0  0  0  0  0  0
    6.0944   -1.2990    0.0000 C   0  0  0  0  0  0  0  0  0  0  0  0
    5.3444   -2.5981    0.0000 O   0  0  0  0  0  0  0  0  0  0  0  0
    5.3444    0.0000    0.0000 O   0  0  0  0  0  0  0  0  0  0  0  0
    3.8444    0.0000    0.0000 C   0  0  0  0  0  0  0  0  0  0  0  0
    3.5517   -1.4712    0.0000 C   0  0  0  0  0  0  0  0  0  0  0  0
    2.7184   -2.7184    0.0000 C   0  0  0  0  0  0  0  0  0  0  0  0
    3.7790   -3.7790    0.0000 O   0  0  0  0  0  0  0  0  0  0  0  0
    1.4712   -3.5517    0.0000 O   0  0  0  0  0  0  0  0  0  0  0  0
   -0.0000   -3.8444    0.0000 C   0  0  0  0  0  0  0  0  0  0  0  0
   -0.0000   -5.3444    0.0000 C   0  0  0  0  0  0  0  0  0  0  0  0
   -1.4712   -3.5517    0.0000 C   0  0  0  0  0  0  0  0  0  0  0  0
   -2.7184   -2.7184    0.0000 C   0  0  0  0  0  0  0  0  0  0  0  0
   -3.5517   -1.4712    0.0000 C   0  0  0  0  0  0  0  0  0  0  0  0
   -3.8444    0.0000    0.0000 C   0  0  0  0  0  0  0  0  0  0  0  0
   -3.5517    1.4712    0.0000 C   0  0  0  0  0  0  0  0  0  0  0  0
   -2.7184    2.7184    0.0000 C   0  0  0  0  0  0  0  0  0  0  0  0
   -3.7790    3.7790    0.0000 O   0  0  0  0  0  0  0  0  0  0  0  0
   -1.4712    3.5517    0.0000 C   0  0  0  0  0  0  0  0  0  0  0  0
   -2.0452    4.9376    0.0000 C   0  0  0  0  0  0  0  0  0  0  0  0
    0.0000    3.8444    0.0000 C   0  0  0  0  0  0  0  0  0  0  0  0
    1.4712    3.5517    0.0000 C   0  0  0  0  0  0  0  0  0  0  0  0
    2.0452    4.9376    0.0000 C   0  0  0  0  0  0  0  0  0  0  0  0
    3.5324    5.1333    0.0000 C   0  0  0  0  0  0  0  0  0  0  0  0
    4.1064    6.5192    0.0000 O   0  0  0  0  0  0  0  0  0  0  0  0
    2.7184    2.7184    0.0000 C   0  0  0  0  0  0  0  0  0  0  0  0
    3.7790    3.7790    0.0000 O   0  0  0  0  0  0  0  0  0  0  0  0
    5.2279    3.3908    0.0000 C   0  0  0  0  0  0  0  0  0  0  0  0
    5.6162    1.9419    0.0000 O   0  0  0  0  0  0  0  0  0  0  0  0
    7.0650    1.5537    0.0000 C   0  0  0  0  0  0  0  0  0  0  0  0
    7.4533    0.1048    0.0000 C   0  0  0  0  0  0  0  0  0  0  0  0
    8.1257    2.6144    0.0000 C   0  0  0  0  0  0  0  0  0  0  0  0
    9.5746    2.2261    0.0000 O   0  0  0  0  0  0  0  0  0  0  0  0
   10.6353    3.2868    0.0000 C   0  0  0  0  0  0  0  0  0  0  0  0
   12.0841    2.8986    0.0000 C   0  0  0  0  0  0  0  0  0  0  0  0
   13.1448    3.9592    0.0000 C   0  0  0  0  0  0  0  0  0  0  0  0
   14.5043    4.5931    0.0000 C   0  0  0  0  0  0  0  0  0  0  0  0
   14.0052    2.7305    0.0000 O   0  0  0  0  0  0  0  0  0  0  0  0
   12.7566    5.4081    0.0000 C   0  0  0  0  0  0  0  0  0  0  0  0
   13.8172    6.4688    0.0000 O   0  0  0  0  0  0  0  0  0  0  0  0
   13.4290    7.9177    0.0000 C   0  0  0  0  0  0  0  0  0  0  0  0
   11.9801    8.3059    0.0000 O   0  0  0  0  0  0  0  0  0  0  0  0
   14.4897    8.9783    0.0000 C   0  0  0  0  0  0  0  0  0  0  0  0
   14.1014   10.4272    0.0000 C   0  0  0  0  0  0  0  0  0  0  0  0
   15.1621   11.4879    0.0000 C   0  0  0  0  0  0  0  0  0  0  0  0
   12.6526   10.8154    0.0000 C   0  0  0  0  0  0  0  0  0  0  0  0
   11.3077    5.7963    0.0000 C   0  0  0  0  0  0  0  0  0  0  0  0
   10.9195    7.2452    0.0000 C   0  0  0  0  0  0  0  0  0  0  0  0
   10.2470    4.7357    0.0000 O   0  0  0  0  0  0  0  0  0  0  0  0
    7.7375    4.0632    0.0000 C   0  0  0  0  0  0  0  0  0  0  0  0
    8.7981    5.1239    0.0000 N   0  0  0  0  0  0  0  0  0  0  0  0
    8.4099    6.5728    0.0000 C   0  0  0  0  0  0  0  0  0  0  0  0
    9.5952    5.1100    0.0000 C   0  0  0  0  0  0  0  0  0  0  0  0
    6.2886    4.4515    0.0000 C   0  0  0  0  0  0  0  0  0  0  0  0
    5.9004    5.9004    0.0000 O   0  0  0  0  0  0  0  0  0  0  0  0
    3.5517    1.4712    0.0000 C   0  0  0  0  0  0  0  0  0  0  0  0
    4.9376    2.0452    0.0000 O   0  0  0  0  0  0  0  0  0  0  0  0
    6.1276    1.1321    0.0000 C   0  0  0  0  0  0  0  0  0  0  0  0
  1  2  1  0
  2  3  1  0
  3  4  1  0
  4  5  2  0
  4  6  1  0
  6  7  1  0
  7  8  1  0
  8  9  1  0
  9 10  2  0
  9 11  1  0
 11 12  1  0
 12 13  1  0
 12 14  1  0
 14 15  1  0
 15 16  2  0
 16 17  1  0
 17 18  2  0
 18 19  1  0
 19 20  2  0
 19 21  1  0
 21 22  1  0
 21 23  1  0
 23 24  1  0
 24 25  1  0
 25 26  1  0
 26 27  2  0
 24 28  1  0
 28 29  1  0
 29 30  1  0
 30 31  1  0
 31 32  1  0
 32 33  1  0
 32 34  1  0
 34 35  1  0
 35 36  1  0
 36 37  1  0
 37 38  1  0
 38 39  1  0
 38 40  1  0
 38 41  1  0
 41 42  1  0
 42 43  1  0
 43 44  2  0
 43 45  1  0
 45 46  1  0
 46 47  1  0
 46 48  1  0
 41 49  1  0
 49 50  1  0
 49 51  1  0
 34 52  1  0
 52 53  1  0
 53 54  1  0
 53 55  1  0
 52 56  1  0
 56 57  1  0
 28 58  1  0
 58 59  1  0
 59 60  1  0
 58  7  1  0
 56 30  1  0
 51 36  1  0
M  END
>  <ChEMBL_IDs>  (571) 
nan

>  <target_organism>  (571) 
nan

>  <target_molecule_pref_name>  (571) 
nan

>  <# Known Targets>  (571) 
nan

>  <Known Targets>  (571) 
nan

>  <smiles>  (571) 
CCCC(=O)OC1CC(=O)OC(C)C/C=C\C=C/C(=O)C(C)CC(CC=O)C(OC2OC(C)C(OC3CC(C)(O)C(OC(=O)CC(C)C)C(C)O3)C(N(C)C)C2O)C1OC

$$$$

     RDKit          2D

 60 62  0  0  0  0  0  0  0  0999 V2000
    9.8444   -2.5981    0.0000 C   0  0  0  0  0  0  0  0  0  0  0  0
    8.3444   -2.5981    0.0000 C   0  0  0  0  0  0  0  0  0  0  0  0
    7.5944   -1.2990    0.0000 C   0  0  0  0  0  0  0  0  0  0  0  0
    6.0944   -1.2990    0.0000 C   0  0  0  0  0  0  0  0  0  0  0  0
    5.3444   -2.5981    0.0000 O   0  0  0  0  0  0  0  0  0  0  0  0
    5.3444    0.0000    0.0000 O   0  0  0  0  0  0  0  0  0  0  0  0
    3.8444    0.0000    0.0000 C   0  0  0  0  0  0  0  0  0  0  0  0
    3.5517   -1.4712    0.0000 C   0  0  0  0  0  0  0  0  0  0  0  0
    2.7184   -2.7184    0.0000 C   0  0  0  0  0  0  0  0  0  0  0  0
    3.7790   -3.7790    0.0000 O   0  0  0  0  0  0  0  0  0  0  0  0
    1.4712   -3.5517    0.0000 O   0  0  0  0  0  0  0  0  0  0  0  0
   -0.0000   -3.8444    0.0000 C   0  0  0  0  0  0  0  0  0  0  0  0
   -0.0000   -5.3444    0.0000 C   0  0  0  0  0  0  0  0  0  0  0  0
   -1.4712   -3.5517    0.0000 C   0  0  0  0  0  0  0  0  0  0  0  0
   -2.7184   -2.7184    0.0000 C   0  0  0  0  0  0  0  0  0  0  0  0
   -3.5517   -1.4712    0.0000 C   0  0  0  0  0  0  0  0  0  0  0  0
   -3.8444    0.0000    0.0000 C   0  0  0  0  0  0  0  0  0  0  0  0
   -3.5517    1.4712    0.0000 C   0  0  0  0  0  0  0  0  0  0  0  0
   -2.7184    2.7184    0.0000 C   0  0  0  0  0  0  0  0  0  0  0  0
   -3.7790    3.7790    0.0000 O   0  0  0  0  0  0  0  0  0  0  0  0
   -1.4712    3.5517    0.0000 C   0  0  0  0  0  0  0  0  0  0  0  0
   -2.0452    4.9376    0.0000 C   0  0  0  0  0  0  0  0  0  0  0  0
    0.0000    3.8444    0.0000 C   0  0  0  0  0  0  0  0  0  0  0  0
    1.4712    3.5517    0.0000 C   0  0  0  0  0  0  0  0  0  0  0  0
    2.0452    4.9376    0.0000 C   0  0  0  0  0  0  0  0  0  0  0  0
    3.5324    5.1333    0.0000 C   0  0  0  0  0  0  0  0  0  0  0  0
    4.1064    6.5192    0.0000 O   0  0  0  0  0  0  0  0  0  0  0  0
    2.7184    2.7184    0.0000 C   0  0  0  0  0  0  0  0  0  0  0  0
    3.7790    3.7790    0.0000 O   0  0  0  0  0  0  0  0  0  0  0  0
    5.2279    3.3908    0.0000 C   0  0  0  0  0  0  0  0  0  0  0  0
    5.6162    1.9419    0.0000 O   0  0  0  0  0  0  0  0  0  0  0  0
    7.0650    1.5537    0.0000 C   0  0  0  0  0  0  0  0  0  0  0  0
    7.4533    0.1048    0.0000 C   0  0  0  0  0  0  0  0  0  0  0  0
    8.1257    2.6144    0.0000 C   0  0  0  0  0  0  0  0  0  0  0  0
    9.5746    2.2261    0.0000 O   0  0  0  0  0  0  0  0  0  0  0  0
   10.6353    3.2868    0.0000 C   0  0  0  0  0  0  0  0  0  0  0  0
   12.0841    2.8986    0.0000 C   0  0  0  0  0  0  0  0  0  0  0  0
   13.1448    3.9592    0.0000 C   0  0  0  0  0  0  0  0  0  0  0  0
   14.5043    4.5931    0.0000 C   0  0  0  0  0  0  0  0  0  0  0  0
   14.0052    2.7305    0.0000 O   0  0  0  0  0  0  0  0  0  0  0  0
   12.7566    5.4081    0.0000 C   0  0  0  0  0  0  0  0  0  0  0  0
   13.8172    6.4688    0.0000 O   0  0  0  0  0  0  0  0  0  0  0  0
   13.4290    7.9177    0.0000 C   0  0  0  0  0  0  0  0  0  0  0  0
   11.9801    8.3059    0.0000 O   0  0  0  0  0  0  0  0  0  0  0  0
   14.4897    8.9783    0.0000 C   0  0  0  0  0  0  0  0  0  0  0  0
   14.1014   10.4272    0.0000 C   0  0  0  0  0  0  0  0  0  0  0  0
   15.1621   11.4879    0.0000 C   0  0  0  0  0  0  0  0  0  0  0  0
   12.6526   10.8154    0.0000 C   0  0  0  0  0  0  0  0  0  0  0  0
   11.3077    5.7963    0.0000 C   0  0  0  0  0  0  0  0  0  0  0  0
   10.9195    7.2452    0.0000 C   0  0  0  0  0  0  0  0  0  0  0  0
   10.2470    4.7357    0.0000 O   0  0  0  0  0  0  0  0  0  0  0  0
    7.7375    4.0632    0.0000 C   0  0  0  0  0  0  0  0  0  0  0  0
    8.7981    5.1239    0.0000 N   0  0  0  0  0  0  0  0  0  0  0  0
    8.4099    6.5728    0.0000 C   0  0  0  0  0  0  0  0  0  0  0  0
    9.5952    5.1100    0.0000 C   0  0  0  0  0  0  0  0  0  0  0  0
    6.2886    4.4515    0.0000 C   0  0  0  0  0  0  0  0  0  0  0  0
    5.9004    5.9004    0.0000 O   0  0  0  0  0  0  0  0  0  0  0  0
    3.5517    1.4712    0.0000 C   0  0  0  0  0  0  0  0  0  0  0  0
    4.9376    2.0452    0.0000 O   0  0  0  0  0  0  0  0  0  0  0  0
    6.1276    1.1321    0.0000 C   0  0  0  0  0  0  0  0  0  0  0  0
  1  2  1  0
  2  3  1  0
  3  4  1  0
  4  5  2  0
  4  6  1  0
  6  7  1  0
  7  8  1  0
  8  9  1  0
  9 10  2  0
  9 11  1  0
 11 12  1  0
 12 13  1  0
 12 14  1  0
 14 15  1  0
 15 16  2  0
 16 17  1  0
 17 18  2  0
 18 19  1  0
 19 20  2  0
 19 21  1  0
 21 22  1  0
 21 23  1  0
 23 24  1  0
 24 25  1  0
 25 26  1  0
 26 27  2  0
 24 28  1  0
 28 29  1  0
 29 30  1  0
 30 31  1  0
 31 32  1  0
 32 33  1  0
 32 34  1  0
 34 35  1  0
 35 36  1  0
 36 37  1  0
 37 38  1  0
 38 39  1  0
 38 40  1  0
 38 41  1  0
 41 42  1  0
 42 43  1  0
 43 44  2  0
 43 45  1  0
 45 46  1  0
 46 47  1  0
 46 48  1  0
 41 49  1  0
 49 50  1  0
 49 51  1  0
 34 52  1  0
 52 53  1  0
 53 54  1  0
 53 55  1  0
 52 56  1  0
 56 57  1  0
 28 58  1  0
 58 59  1  0
 59 60  1  0
 58  7  1  0
 56 30  1  0
 51 36  1  0
M  END
>  <ChEMBL_IDs>  (572) 
nan

>  <target_organism>  (572) 
nan

>  <target_molecule_pref_name>  (572) 
nan

>  <# Known Targets>  (572) 
nan

>  <Known Targets>  (572) 
nan

>  <smiles>  (572) 
CCCC(=O)OC1CC(=O)OC(C)C/C=C\C=C/C(=O)C(C)CC(CC=O)C(OC2OC(C)C(OC3CC(C)(O)C(OC(=O)CC(C)C)C(C)O3)C(N(C)C)C2O)C1OC

$$$$

     RDKit          2D

 60 62  0  0  0  0  0  0  0  0999 V2000
    9.8444   -2.5981    0.0000 C   0  0  0  0  0  0  0  0  0  0  0  0
    8.3444   -2.5981    0.0000 C   0  0  0  0  0  0  0  0  0  0  0  0
    7.5944   -1.2990    0.0000 C   0  0  0  0  0  0  0  0  0  0  0  0
    6.0944   -1.2990    0.0000 C   0  0  0  0  0  0  0  0  0  0  0  0
    5.3444   -2.5981    0.0000 O   0  0  0  0  0  0  0  0  0  0  0  0
    5.3444    0.0000    0.0000 O   0  0  0  0  0  0  0  0  0  0  0  0
    3.8444    0.0000    0.0000 C   0  0  0  0  0  0  0  0  0  0  0  0
    3.5517   -1.4712    0.0000 C   0  0  0  0  0  0  0  0  0  0  0  0
    2.7184   -2.7184    0.0000 C   0  0  0  0  0  0  0  0  0  0  0  0
    3.7790   -3.7790    0.0000 O   0  0  0  0  0  0  0  0  0  0  0  0
    1.4712   -3.5517    0.0000 O   0  0  0  0  0  0  0  0  0  0  0  0
   -0.0000   -3.8444    0.0000 C   0  0  0  0  0  0  0  0  0  0  0  0
   -0.0000   -5.3444    0.0000 C   0  0  0  0  0  0  0  0  0  0  0  0
   -1.4712   -3.5517    0.0000 C   0  0  0  0  0  0  0  0  0  0  0  0
   -2.7184   -2.7184    0.0000 C   0  0  0  0  0  0  0  0  0  0  0  0
   -3.7790   -3.7790    0.0000 O   0  0  0  0  0  0  0  0  0  0  0  0
   -3.5517   -1.4712    0.0000 C   0  0  0  0  0  0  0  0  0  0  0  0
   -3.8444    0.0000    0.0000 C   0  0  0  0  0  0  0  0  0  0  0  0
   -3.5517    1.4712    0.0000 C   0  0  0  0  0  0  0  0  0  0  0  0
   -2.7184    2.7184    0.0000 C   0  0  0  0  0  0  0  0  0  0  0  0
   -1.4712    3.5517    0.0000 C   0  0  0  0  0  0  0  0  0  0  0  0
   -2.0452    4.9376    0.0000 C   0  0  0  0  0  0  0  0  0  0  0  0
    0.0000    3.8444    0.0000 C   0  0  0  0  0  0  0  0  0  0  0  0
    1.4712    3.5517    0.0000 C   0  0  0  0  0  0  0  0  0  0  0  0
    2.0452    4.9376    0.0000 C   0  0  0  0  0  0  0  0  0  0  0  0
    3.5324    5.1333    0.0000 C   0  0  0  0  0  0  0  0  0  0  0  0
    4.1064    6.5192    0.0000 O   0  0  0  0  0  0  0  0  0  0  0  0
    2.7184    2.7184    0.0000 C   0  0  0  0  0  0  0  0  0  0  0  0
    3.7790    3.7790    0.0000 O   0  0  0  0  0  0  0  0  0  0  0  0
    5.2279    3.3908    0.0000 C   0  0  0  0  0  0  0  0  0  0  0  0
    5.6162    1.9419    0.0000 O   0  0  0  0  0  0  0  0  0  0  0  0
    7.0650    1.5537    0.0000 C   0  0  0  0  0  0  0  0  0  0  0  0
    7.4533    0.1048    0.0000 C   0  0  0  0  0  0  0  0  0  0  0  0
    8.1257    2.6144    0.0000 C   0  0  0  0  0  0  0  0  0  0  0  0
    9.5746    2.2261    0.0000 O   0  0  0  0  0  0  0  0  0  0  0  0
   10.6353    3.2868    0.0000 C   0  0  0  0  0  0  0  0  0  0  0  0
   12.0841    2.8986    0.0000 C   0  0  0  0  0  0  0  0  0  0  0  0
   13.1448    3.9592    0.0000 C   0  0  0  0  0  0  0  0  0  0  0  0
   14.5043    4.5931    0.0000 C   0  0  0  0  0  0  0  0  0  0  0  0
   14.0052    2.7305    0.0000 O   0  0  0  0  0  0  0  0  0  0  0  0
   12.7566    5.4081    0.0000 C   0  0  0  0  0  0  0  0  0  0  0  0
   13.8172    6.4688    0.0000 O   0  0  0  0  0  0  0  0  0  0  0  0
   13.4290    7.9177    0.0000 C   0  0  0  0  0  0  0  0  0  0  0  0
   11.9801    8.3059    0.0000 O   0  0  0  0  0  0  0  0  0  0  0  0
   14.4897    8.9783    0.0000 C   0  0  0  0  0  0  0  0  0  0  0  0
   14.1014   10.4272    0.0000 C   0  0  0  0  0  0  0  0  0  0  0  0
   15.1621   11.4879    0.0000 C   0  0  0  0  0  0  0  0  0  0  0  0
   12.6526   10.8154    0.0000 C   0  0  0  0  0  0  0  0  0  0  0  0
   11.3077    5.7963    0.0000 C   0  0  0  0  0  0  0  0  0  0  0  0
   10.9195    7.2452    0.0000 C   0  0  0  0  0  0  0  0  0  0  0  0
   10.2470    4.7357    0.0000 O   0  0  0  0  0  0  0  0  0  0  0  0
    7.7375    4.0632    0.0000 C   0  0  0  0  0  0  0  0  0  0  0  0
    8.7981    5.1239    0.0000 N   0  0  0  0  0  0  0  0  0  0  0  0
    8.4099    6.5728    0.0000 C   0  0  0  0  0  0  0  0  0  0  0  0
    9.5952    5.1100    0.0000 C   0  0  0  0  0  0  0  0  0  0  0  0
    6.2886    4.4515    0.0000 C   0  0  0  0  0  0  0  0  0  0  0  0
    5.9004    5.9004    0.0000 O   0  0  0  0  0  0  0  0  0  0  0  0
    3.5517    1.4712    0.0000 C   0  0  0  0  0  0  0  0  0  0  0  0
    4.9376    2.0452    0.0000 O   0  0  0  0  0  0  0  0  0  0  0  0
    6.1276    1.1321    0.0000 C   0  0  0  0  0  0  0  0  0  0  0  0
  1  2  1  0
  2  3  1  0
  3  4  1  0
  4  5  2  0
  4  6  1  0
  6  7  1  0
  7  8  1  0
  8  9  1  0
  9 10  2  0
  9 11  1  0
 11 12  1  0
 12 13  1  0
 12 14  1  0
 14 15  1  0
 15 16  1  0
 15 17  1  0
 17 18  2  0
 18 19  1  0
 19 20  2  0
 20 21  1  0
 21 22  1  0
 21 23  1  0
 23 24  1  0
 24 25  1  0
 25 26  1  0
 26 27  2  0
 24 28  1  0
 28 29  1  0
 29 30  1  0
 30 31  1  0
 31 32  1  0
 32 33  1  0
 32 34  1  0
 34 35  1  0
 35 36  1  0
 36 37  1  0
 37 38  1  0
 38 39  1  0
 38 40  1  0
 38 41  1  0
 41 42  1  0
 42 43  1  0
 43 44  2  0
 43 45  1  0
 45 46  1  0
 46 47  1  0
 46 48  1  0
 41 49  1  0
 49 50  1  0
 49 51  1  0
 34 52  1  0
 52 53  1  0
 53 54  1  0
 53 55  1  0
 52 56  1  0
 56 57  1  0
 28 58  1  0
 58 59  1  0
 59 60  1  0
 58  7  1  0
 56 30  1  0
 51 36  1  0
M  END
>  <ChEMBL_IDs>  (573) 
nan

>  <target_organism>  (573) 
nan

>  <target_molecule_pref_name>  (573) 
nan

>  <# Known Targets>  (573) 
nan

>  <Known Targets>  (573) 
nan

>  <smiles>  (573) 
CCCC(=O)OC1CC(=O)OC(C)CC(O)/C=C\C=C/C(C)CC(CC=O)C(OC2OC(C)C(OC3CC(C)(O)C(OC(=O)CC(C)C)C(C)O3)C(N(C)C)C2O)C1OC

$$$$

     RDKit          2D

 60 62  0  0  0  0  0  0  0  0999 V2000
    6.0944   -1.2990    0.0000 C   0  0  0  0  0  0  0  0  0  0  0  0
    5.3444    0.0000    0.0000 C   0  0  0  0  0  0  0  0  0  0  0  0
    3.8444    0.0000    0.0000 C   0  0  0  0  0  0  0  0  0  0  0  0
    3.5517   -1.4712    0.0000 O   0  0  0  0  0  0  0  0  0  0  0  0
    2.7184   -2.7184    0.0000 C   0  0  0  0  0  0  0  0  0  0  0  0
    3.7790   -3.7790    0.0000 O   0  0  0  0  0  0  0  0  0  0  0  0
    1.4712   -3.5517    0.0000 C   0  0  0  0  0  0  0  0  0  0  0  0
   -0.0000   -3.8444    0.0000 C   0  0  0  0  0  0  0  0  0  0  0  0
   -0.0000   -5.3444    0.0000 O   0  0  0  0  0  0  0  0  0  0  0  0
   -1.4712   -3.5517    0.0000 C   0  0  0  0  0  0  0  0  0  0  0  0
   -1.6507   -4.7534    0.0000 C   0  0  0  0  0  0  0  0  0  0  0  0
   -2.7184   -2.7184    0.0000 C   0  0  0  0  0  0  0  0  0  0  0  0
   -3.7790   -3.7790    0.0000 O   0  0  0  0  0  0  0  0  0  0  0  0
   -3.3908   -5.2279    0.0000 C   0  0  0  0  0  0  0  0  0  0  0  0
   -1.9419   -5.6162    0.0000 O   0  0  0  0  0  0  0  0  0  0  0  0
   -1.5537   -7.0650    0.0000 C   0  0  0  0  0  0  0  0  0  0  0  0
   -0.1048   -7.4533    0.0000 C   0  0  0  0  0  0  0  0  0  0  0  0
   -2.6144   -8.1257    0.0000 C   0  0  0  0  0  0  0  0  0  0  0  0
   -2.2261   -9.5746    0.0000 O   0  0  0  0  0  0  0  0  0  0  0  0
   -4.0632   -7.7375    0.0000 C   0  0  0  0  0  0  0  0  0  0  0  0
   -5.1239   -8.7981    0.0000 N   0  0  0  0  0  0  0  0  0  0  0  0
   -6.5728   -8.4099    0.0000 C   0  0  0  0  0  0  0  0  0  0  0  0
   -4.7357  -10.2470    0.0000 C   0  0  0  0  0  0  0  0  0  0  0  0
   -4.4515   -6.2886    0.0000 C   0  0  0  0  0  0  0  0  0  0  0  0
   -5.9004   -5.9004    0.0000 O   0  0  0  0  0  0  0  0  0  0  0  0
   -3.5517   -1.4712    0.0000 C   0  0  0  0  0  0  0  0  0  0  0  0
   -4.9376   -2.0452    0.0000 C   0  0  0  0  0  0  0  0  0  0  0  0
   -6.1276   -1.1321    0.0000 C   0  0  0  0  0  0  0  0  0  0  0  0
   -7.5134   -1.7061    0.0000 N   0  0  0  0  0  0  0  0  0  0  0  0
   -8.7034   -0.7929    0.0000 C   0  0  0  0  0  0  0  0  0  0  0  0
  -10.0893   -1.3670    0.0000 C   0  0  0  0  0  0  0  0  0  0  0  0
  -11.2793   -0.4538    0.0000 C   0  0  0  0  0  0  0  0  0  0  0  0
  -12.6651   -1.0279    0.0000 N   0  0  0  0  0  0  0  0  0  0  0  0
  -13.8551   -0.1147    0.0000 C   0  0  0  0  0  0  0  0  0  0  0  0
  -12.8609   -2.5150    0.0000 C   0  0  0  0  0  0  0  0  0  0  0  0
   -3.8444    0.0000    0.0000 C   0  0  0  0  0  0  0  0  0  0  0  0
   -3.5517    1.4712    0.0000 C   0  0  0  0  0  0  0  0  0  0  0  0
   -4.9376    2.0452    0.0000 C   0  0  0  0  0  0  0  0  0  0  0  0
   -2.7184    2.7184    0.0000 C   0  0  0  0  0  0  0  0  0  0  0  0
   -3.7790    3.7790    0.0000 O   0  0  0  0  0  0  0  0  0  0  0  0
   -1.4712    3.5517    0.0000 C   0  0  0  0  0  0  0  0  0  0  0  0
    0.0000    3.8444    0.0000 C   0  0  0  0  0  0  0  0  0  0  0  0
    1.4712    3.5517    0.0000 C   0  0  0  0  0  0  0  0  0  0  0  0
    2.0452    4.9376    0.0000 C   0  0  0  0  0  0  0  0  0  0  0  0
    2.7184    2.7184    0.0000 C   0  0  0  0  0  0  0  0  0  0  0  0
    3.5517    1.4712    0.0000 C   0  0  0  0  0  0  0  0  0  0  0  0
    4.9376    2.0452    0.0000 C   0  0  0  0  0  0  0  0  0  0  0  0
    6.1276    1.1321    0.0000 O   0  0  0  0  0  0  0  0  0  0  0  0
    7.5134    1.7061    0.0000 C   0  0  0  0  0  0  0  0  0  0  0  0
    8.7034    0.7929    0.0000 O   0  0  0  0  0  0  0  0  0  0  0  0
   10.0893    1.3670    0.0000 C   0  0  0  0  0  0  0  0  0  0  0  0
   11.2793    0.4538    0.0000 C   0  0  0  0  0  0  0  0  0  0  0  0
   10.2850    2.8541    0.0000 C   0  0  0  0  0  0  0  0  0  0  0  0
   11.6709    3.4282    0.0000 O   0  0  0  0  0  0  0  0  0  0  0  0
    9.0950    3.7673    0.0000 C   0  0  0  0  0  0  0  0  0  0  0  0
    9.2908    5.2544    0.0000 O   0  0  0  0  0  0  0  0  0  0  0  0
    8.1008    6.1676    0.0000 C   0  0  0  0  0  0  0  0  0  0  0  0
    7.7092    3.1933    0.0000 C   0  0  0  0  0  0  0  0  0  0  0  0
    6.5192    4.1064    0.0000 O   0  0  0  0  0  0  0  0  0  0  0  0
    6.7150    5.5936    0.0000 C   0  0  0  0  0  0  0  0  0  0  0  0
  1  2  1  0
  3  2  1  1
  3  4  1  0
  4  5  1  0
  5  6  2  0
  5  7  1  0
  7  8  1  0
  8  9  1  0
  8 10  1  0
 10 11  1  6
 10 12  1  0
 12 13  1  1
 14 13  1  6
 14 15  1  0
 15 16  1  0
 16 17  1  6
 16 18  1  0
 18 19  1  1
 18 20  1  0
 20 21  1  6
 21 22  1  0
 21 23  1  0
 20 24  1  0
 24 25  1  1
 12 26  1  0
 26 27  1  1
 27 28  1  0
 28 29  1  0
 29 30  1  0
 30 31  1  0
 31 32  1  0
 32 33  1  0
 33 34  1  0
 33 35  1  0
 26 36  1  0
 36 37  1  0
 37 38  1  1
 37 39  1  0
 39 40  2  0
 39 41  1  0
 41 42  2  0
 42 43  1  0
 43 44  1  0
 43 45  2  0
 45 46  1  0
 46 47  1  6
 47 48  1  0
 49 48  1  1
 49 50  1  0
 50 51  1  0
 51 52  1  1
 51 53  1  0
 53 54  1  6
 53 55  1  0
 55 56  1  6
 56 57  1  0
 55 58  1  0
 58 59  1  6
 59 60  1  0
 46  3  1  0
 58 49  1  0
 24 14  1  0
M  END
>  <ChEMBL_IDs>  (574) 
CHEMBL415623

>  <target_organism>  (574) 
Rattus norvegicus

>  <target_molecule_pref_name>  (574) 
nan

>  <# Known Targets>  (574) 
nan

>  <Known Targets>  (574) 
nan

>  <smiles>  (574) 
CC[C@H]1OC(=O)CC(O)[C@H](C)[C@@H](O[C@@H]2O[C@H](C)[C@@H](O)[C@H](N(C)C)[C@H]2O)[C@@H](CCNCCCN(C)C)C[C@@H](C)C(=O)/C=C/C(C)=C/[C@@H]1CO[C@@H]1O[C@H](C)[C@@H](O)[C@@H](OC)[C@H]1OC

$$$$

     RDKit          2D

 60 62  0  0  0  0  0  0  0  0999 V2000
    6.0944   -1.2990    0.0000 C   0  0  0  0  0  0  0  0  0  0  0  0
    5.3444    0.0000    0.0000 C   0  0  0  0  0  0  0  0  0  0  0  0
    3.8444    0.0000    0.0000 C   0  0  0  0  0  0  0  0  0  0  0  0
    3.5517   -1.4712    0.0000 O   0  0  0  0  0  0  0  0  0  0  0  0
    2.7184   -2.7184    0.0000 C   0  0  0  0  0  0  0  0  0  0  0  0
    3.7790   -3.7790    0.0000 O   0  0  0  0  0  0  0  0  0  0  0  0
    1.4712   -3.5517    0.0000 C   0  0  0  0  0  0  0  0  0  0  0  0
   -0.0000   -3.8444    0.0000 C   0  0  0  0  0  0  0  0  0  0  0  0
   -0.0000   -5.3444    0.0000 O   0  0  0  0  0  0  0  0  0  0  0  0
   -1.4712   -3.5517    0.0000 C   0  0  0  0  0  0  0  0  0  0  0  0
   -1.6507   -4.7534    0.0000 C   0  0  0  0  0  0  0  0  0  0  0  0
   -2.7184   -2.7184    0.0000 C   0  0  0  0  0  0  0  0  0  0  0  0
   -3.7790   -3.7790    0.0000 O   0  0  0  0  0  0  0  0  0  0  0  0
   -3.3908   -5.2279    0.0000 C   0  0  0  0  0  0  0  0  0  0  0  0
   -1.9419   -5.6162    0.0000 O   0  0  0  0  0  0  0  0  0  0  0  0
   -1.5537   -7.0650    0.0000 C   0  0  0  0  0  0  0  0  0  0  0  0
   -0.1048   -7.4533    0.0000 C   0  0  0  0  0  0  0  0  0  0  0  0
   -2.6144   -8.1257    0.0000 C   0  0  0  0  0  0  0  0  0  0  0  0
   -2.2261   -9.5746    0.0000 O   0  0  0  0  0  0  0  0  0  0  0  0
   -4.0632   -7.7375    0.0000 C   0  0  0  0  0  0  0  0  0  0  0  0
   -5.1239   -8.7981    0.0000 N   0  0  0  0  0  0  0  0  0  0  0  0
   -6.5728   -8.4099    0.0000 C   0  0  0  0  0  0  0  0  0  0  0  0
   -4.7357  -10.2470    0.0000 C   0  0  0  0  0  0  0  0  0  0  0  0
   -4.4515   -6.2886    0.0000 C   0  0  0  0  0  0  0  0  0  0  0  0
   -5.9004   -5.9004    0.0000 O   0  0  0  0  0  0  0  0  0  0  0  0
   -3.5517   -1.4712    0.0000 C   0  0  0  0  0  0  0  0  0  0  0  0
   -4.9376   -2.0452    0.0000 C   0  0  0  0  0  0  0  0  0  0  0  0
   -6.1276   -1.1321    0.0000 C   0  0  0  0  0  0  0  0  0  0  0  0
   -7.5134   -1.7061    0.0000 N   0  0  0  0  0  0  0  0  0  0  0  0
   -8.7034   -0.7929    0.0000 C   0  0  0  0  0  0  0  0  0  0  0  0
   -7.7092   -3.1933    0.0000 C   0  0  0  0  0  0  0  0  0  0  0  0
   -9.0950   -3.7673    0.0000 C   0  0  0  0  0  0  0  0  0  0  0  0
   -9.2908   -5.2544    0.0000 C   0  0  0  0  0  0  0  0  0  0  0  0
  -10.6766   -5.8285    0.0000 N   0  0  0  0  0  0  0  0  0  0  0  0
  -10.8724   -7.3156    0.0000 C   0  0  0  0  0  0  0  0  0  0  0  0
   -3.8444    0.0000    0.0000 C   0  0  0  0  0  0  0  0  0  0  0  0
   -3.5517    1.4712    0.0000 C   0  0  0  0  0  0  0  0  0  0  0  0
   -4.9376    2.0452    0.0000 C   0  0  0  0  0  0  0  0  0  0  0  0
   -2.7184    2.7184    0.0000 C   0  0  0  0  0  0  0  0  0  0  0  0
   -3.7790    3.7790    0.0000 O   0  0  0  0  0  0  0  0  0  0  0  0
   -1.4712    3.5517    0.0000 C   0  0  0  0  0  0  0  0  0  0  0  0
    0.0000    3.8444    0.0000 C   0  0  0  0  0  0  0  0  0  0  0  0
    1.4712    3.5517    0.0000 C   0  0  0  0  0  0  0  0  0  0  0  0
    2.0452    4.9376    0.0000 C   0  0  0  0  0  0  0  0  0  0  0  0
    2.7184    2.7184    0.0000 C   0  0  0  0  0  0  0  0  0  0  0  0
    3.5517    1.4712    0.0000 C   0  0  0  0  0  0  0  0  0  0  0  0
    4.9376    2.0452    0.0000 C   0  0  0  0  0  0  0  0  0  0  0  0
    6.1276    1.1321    0.0000 O   0  0  0  0  0  0  0  0  0  0  0  0
    7.5134    1.7061    0.0000 C   0  0  0  0  0  0  0  0  0  0  0  0
    8.7034    0.7929    0.0000 O   0  0  0  0  0  0  0  0  0  0  0  0
   10.0893    1.3670    0.0000 C   0  0  0  0  0  0  0  0  0  0  0  0
   11.2793    0.4538    0.0000 C   0  0  0  0  0  0  0  0  0  0  0  0
   10.2850    2.8541    0.0000 C   0  0  0  0  0  0  0  0  0  0  0  0
   11.6709    3.4282    0.0000 O   0  0  0  0  0  0  0  0  0  0  0  0
    9.0950    3.7673    0.0000 C   0  0  0  0  0  0  0  0  0  0  0  0
    9.2908    5.2544    0.0000 O   0  0  0  0  0  0  0  0  0  0  0  0
    8.1008    6.1676    0.0000 C   0  0  0  0  0  0  0  0  0  0  0  0
    7.7092    3.1933    0.0000 C   0  0  0  0  0  0  0  0  0  0  0  0
    6.5192    4.1064    0.0000 O   0  0  0  0  0  0  0  0  0  0  0  0
    6.7150    5.5936    0.0000 C   0  0  0  0  0  0  0  0  0  0  0  0
  1  2  1  0
  3  2  1  1
  3  4  1  0
  4  5  1  0
  5  6  2  0
  5  7  1  0
  7  8  1  0
  8  9  1  0
  8 10  1  0
 10 11  1  6
 10 12  1  0
 12 13  1  1
 14 13  1  6
 14 15  1  0
 15 16  1  0
 16 17  1  6
 16 18  1  0
 18 19  1  1
 18 20  1  0
 20 21  1  6
 21 22  1  0
 21 23  1  0
 20 24  1  0
 24 25  1  1
 12 26  1  0
 26 27  1  1
 27 28  1  0
 28 29  1  0
 29 30  1  0
 29 31  1  0
 31 32  1  0
 32 33  1  0
 33 34  1  0
 34 35  1  0
 26 36  1  0
 36 37  1  0
 37 38  1  1
 37 39  1  0
 39 40  2  0
 39 41  1  0
 41 42  2  0
 42 43  1  0
 43 44  1  0
 43 45  2  0
 45 46  1  0
 46 47  1  6
 47 48  1  0
 49 48  1  1
 49 50  1  0
 50 51  1  0
 51 52  1  1
 51 53  1  0
 53 54  1  6
 53 55  1  0
 55 56  1  6
 56 57  1  0
 55 58  1  0
 58 59  1  6
 59 60  1  0
 46  3  1  0
 58 49  1  0
 24 14  1  0
M  END
>  <ChEMBL_IDs>  (575) 
CHEMBL9022

>  <target_organism>  (575) 
Homo sapiens,Chlorocebus aethiops,None

>  <target_molecule_pref_name>  (575) 
nan

>  <# Known Targets>  (575) 
nan

>  <Known Targets>  (575) 
nan

>  <smiles>  (575) 
CC[C@H]1OC(=O)CC(O)[C@H](C)[C@@H](O[C@@H]2O[C@H](C)[C@@H](O)[C@H](N(C)C)[C@H]2O)[C@@H](CCN(C)CCCNC)C[C@@H](C)C(=O)/C=C/C(C)=C/[C@@H]1CO[C@@H]1O[C@H](C)[C@@H](O)[C@@H](OC)[C@H]1OC

$$$$

     RDKit          2D

 60 62  0  0  0  0  0  0  0  0999 V2000
    6.0944   -1.2990    0.0000 C   0  0  0  0  0  0  0  0  0  0  0  0
    5.3444    0.0000    0.0000 C   0  0  0  0  0  0  0  0  0  0  0  0
    3.8444    0.0000    0.0000 C   0  0  0  0  0  0  0  0  0  0  0  0
    3.5517   -1.4712    0.0000 O   0  0  0  0  0  0  0  0  0  0  0  0
    2.7184   -2.7184    0.0000 C   0  0  0  0  0  0  0  0  0  0  0  0
    3.7790   -3.7790    0.0000 O   0  0  0  0  0  0  0  0  0  0  0  0
    1.4712   -3.5517    0.0000 C   0  0  0  0  0  0  0  0  0  0  0  0
   -0.0000   -3.8444    0.0000 C   0  0  0  0  0  0  0  0  0  0  0  0
   -0.0000   -5.3444    0.0000 O   0  0  0  0  0  0  0  0  0  0  0  0
   -1.4712   -3.5517    0.0000 C   0  0  0  0  0  0  0  0  0  0  0  0
   -1.6507   -4.7534    0.0000 C   0  0  0  0  0  0  0  0  0  0  0  0
   -2.7184   -2.7184    0.0000 C   0  0  0  0  0  0  0  0  0  0  0  0
   -3.7790   -3.7790    0.0000 O   0  0  0  0  0  0  0  0  0  0  0  0
   -3.3908   -5.2279    0.0000 C   0  0  0  0  0  0  0  0  0  0  0  0
   -1.9419   -5.6162    0.0000 O   0  0  0  0  0  0  0  0  0  0  0  0
   -1.5537   -7.0650    0.0000 C   0  0  0  0  0  0  0  0  0  0  0  0
   -0.1048   -7.4533    0.0000 C   0  0  0  0  0  0  0  0  0  0  0  0
   -2.6144   -8.1257    0.0000 C   0  0  0  0  0  0  0  0  0  0  0  0
   -2.2261   -9.5746    0.0000 O   0  0  0  0  0  0  0  0  0  0  0  0
   -4.0632   -7.7375    0.0000 C   0  0  0  0  0  0  0  0  0  0  0  0
   -5.1239   -8.7981    0.0000 N   0  0  0  0  0  0  0  0  0  0  0  0
   -6.5728   -8.4099    0.0000 C   0  0  0  0  0  0  0  0  0  0  0  0
   -4.7357  -10.2470    0.0000 C   0  0  0  0  0  0  0  0  0  0  0  0
   -4.4515   -6.2886    0.0000 C   0  0  0  0  0  0  0  0  0  0  0  0
   -5.9004   -5.9004    0.0000 O   0  0  0  0  0  0  0  0  0  0  0  0
   -3.5517   -1.4712    0.0000 C   0  0  0  0  0  0  0  0  0  0  0  0
   -4.9376   -2.0452    0.0000 C   0  0  0  0  0  0  0  0  0  0  0  0
   -6.1276   -1.1321    0.0000 C   0  0  0  0  0  0  0  0  0  0  0  0
   -7.5134   -1.7061    0.0000 N   0  0  0  0  0  0  0  0  0  0  0  0
   -8.7034   -0.7929    0.0000 C   0  0  0  0  0  0  0  0  0  0  0  0
   -7.7092   -3.1933    0.0000 C   0  0  0  0  0  0  0  0  0  0  0  0
   -9.0950   -3.7673    0.0000 C   0  0  0  0  0  0  0  0  0  0  0  0
   -9.2908   -5.2544    0.0000 N   0  0  0  0  0  0  0  0  0  0  0  0
  -10.6766   -5.8285    0.0000 C   0  0  0  0  0  0  0  0  0  0  0  0
   -8.1008   -6.1676    0.0000 C   0  0  0  0  0  0  0  0  0  0  0  0
   -3.8444    0.0000    0.0000 C   0  0  0  0  0  0  0  0  0  0  0  0
   -3.5517    1.4712    0.0000 C   0  0  0  0  0  0  0  0  0  0  0  0
   -4.9376    2.0452    0.0000 C   0  0  0  0  0  0  0  0  0  0  0  0
   -2.7184    2.7184    0.0000 C   0  0  0  0  0  0  0  0  0  0  0  0
   -3.7790    3.7790    0.0000 O   0  0  0  0  0  0  0  0  0  0  0  0
   -1.4712    3.5517    0.0000 C   0  0  0  0  0  0  0  0  0  0  0  0
    0.0000    3.8444    0.0000 C   0  0  0  0  0  0  0  0  0  0  0  0
    1.4712    3.5517    0.0000 C   0  0  0  0  0  0  0  0  0  0  0  0
    2.0452    4.9376    0.0000 C   0  0  0  0  0  0  0  0  0  0  0  0
    2.7184    2.7184    0.0000 C   0  0  0  0  0  0  0  0  0  0  0  0
    3.5517    1.4712    0.0000 C   0  0  0  0  0  0  0  0  0  0  0  0
    4.9376    2.0452    0.0000 C   0  0  0  0  0  0  0  0  0  0  0  0
    6.1276    1.1321    0.0000 O   0  0  0  0  0  0  0  0  0  0  0  0
    7.5134    1.7061    0.0000 C   0  0  0  0  0  0  0  0  0  0  0  0
    8.7034    0.7929    0.0000 O   0  0  0  0  0  0  0  0  0  0  0  0
   10.0893    1.3670    0.0000 C   0  0  0  0  0  0  0  0  0  0  0  0
   11.2793    0.4538    0.0000 C   0  0  0  0  0  0  0  0  0  0  0  0
   10.2850    2.8541    0.0000 C   0  0  0  0  0  0  0  0  0  0  0  0
   11.6709    3.4282    0.0000 O   0  0  0  0  0  0  0  0  0  0  0  0
    9.0950    3.7673    0.0000 C   0  0  0  0  0  0  0  0  0  0  0  0
    9.2908    5.2544    0.0000 O   0  0  0  0  0  0  0  0  0  0  0  0
    8.1008    6.1676    0.0000 C   0  0  0  0  0  0  0  0  0  0  0  0
    7.7092    3.1933    0.0000 C   0  0  0  0  0  0  0  0  0  0  0  0
    6.5192    4.1064    0.0000 O   0  0  0  0  0  0  0  0  0  0  0  0
    6.7150    5.5936    0.0000 C   0  0  0  0  0  0  0  0  0  0  0  0
  1  2  1  0
  3  2  1  1
  3  4  1  0
  4  5  1  0
  5  6  2  0
  5  7  1  0
  7  8  1  0
  8  9  1  0
  8 10  1  0
 10 11  1  6
 10 12  1  0
 12 13  1  1
 14 13  1  6
 14 15  1  0
 15 16  1  0
 16 17  1  6
 16 18  1  0
 18 19  1  1
 18 20  1  0
 20 21  1  6
 21 22  1  0
 21 23  1  0
 20 24  1  0
 24 25  1  1
 12 26  1  0
 26 27  1  1
 27 28  1  0
 28 29  1  0
 29 30  1  0
 29 31  1  0
 31 32  1  0
 32 33  1  0
 33 34  1  0
 33 35  1  0
 26 36  1  0
 36 37  1  0
 37 38  1  1
 37 39  1  0
 39 40  2  0
 39 41  1  0
 41 42  2  0
 42 43  1  0
 43 44  1  0
 43 45  2  0
 45 46  1  0
 46 47  1  6
 47 48  1  0
 49 48  1  1
 49 50  1  0
 50 51  1  0
 51 52  1  1
 51 53  1  0
 53 54  1  6
 53 55  1  0
 55 56  1  6
 56 57  1  0
 55 58  1  0
 58 59  1  6
 59 60  1  0
 46  3  1  0
 58 49  1  0
 24 14  1  0
M  END
>  <ChEMBL_IDs>  (576) 
CHEMBL266372

>  <target_organism>  (576) 
Homo sapiens,None

>  <target_molecule_pref_name>  (576) 
nan

>  <# Known Targets>  (576) 
nan

>  <Known Targets>  (576) 
nan

>  <smiles>  (576) 
CC[C@H]1OC(=O)CC(O)[C@H](C)[C@@H](O[C@@H]2O[C@H](C)[C@@H](O)[C@H](N(C)C)[C@H]2O)[C@@H](CCN(C)CCN(C)C)C[C@@H](C)C(=O)/C=C/C(C)=C/[C@@H]1CO[C@@H]1O[C@H](C)[C@@H](O)[C@@H](OC)[C@H]1OC

$$$$

     RDKit          2D

 60 62  0  0  0  0  0  0  0  0999 V2000
    0.2154  -15.9638    0.0000 C   0  0  0  0  0  0  0  0  0  0  0  0
    1.4547  -15.1188    0.0000 C   0  0  0  0  0  0  0  0  0  0  0  0
    1.3426  -13.6230    0.0000 C   0  0  0  0  0  0  0  0  0  0  0  0
    2.5820  -12.7780    0.0000 C   0  0  0  0  0  0  0  0  0  0  0  0
    2.4699  -11.2822    0.0000 C   0  0  0  0  0  0  0  0  0  0  0  0
    3.7093  -10.4372    0.0000 N   0  0  0  0  0  0  0  0  0  0  0  0
    3.5972   -8.9414    0.0000 C   0  0  0  0  0  0  0  0  0  0  0  0
    2.2457   -8.2906    0.0000 O   0  0  0  0  0  0  0  0  0  0  0  0
    4.8365   -8.0964    0.0000 O   0  0  0  0  0  0  0  0  0  0  0  0
    4.7244   -6.6006    0.0000 C   0  0  0  0  0  0  0  0  0  0  0  0
    3.3730   -5.9498    0.0000 C   0  0  0  0  0  0  0  0  0  0  0  0
    2.1336   -6.7948    0.0000 C   0  0  0  0  0  0  0  0  0  0  0  0
    3.2609   -4.4540    0.0000 O   0  0  0  0  0  0  0  0  0  0  0  0
    4.5002   -3.6090    0.0000 C   0  0  0  0  0  0  0  0  0  0  0  0
    4.3881   -2.1132    0.0000 O   0  0  0  0  0  0  0  0  0  0  0  0
    3.0367   -1.4624    0.0000 C   0  0  0  0  0  0  0  0  0  0  0  0
    3.3705    0.0000    0.0000 C   0  0  0  0  0  0  0  0  0  0  0  0
    4.6804   -0.3267    0.0000 C   0  0  0  0  0  0  0  0  0  0  0  0
    3.0367    1.4624    0.0000 C   0  0  0  0  0  0  0  0  0  0  0  0
    4.3881    2.1132    0.0000 O   0  0  0  0  0  0  0  0  0  0  0  0
    5.6275    1.2682    0.0000 C   0  0  0  0  0  0  0  0  0  0  0  0
    5.5154   -0.2276    0.0000 O   0  0  0  0  0  0  0  0  0  0  0  0
    6.7548   -1.0725    0.0000 C   0  0  0  0  0  0  0  0  0  0  0  0
    6.6427   -2.5684    0.0000 C   0  0  0  0  0  0  0  0  0  0  0  0
    8.1062   -0.4217    0.0000 C   0  0  0  0  0  0  0  0  0  0  0  0
    8.2183    1.0741    0.0000 C   0  0  0  0  0  0  0  0  0  0  0  0
    9.5698    1.7249    0.0000 N   0  0  0  0  0  0  0  0  0  0  0  0
   10.8091    0.8799    0.0000 C   0  0  0  0  0  0  0  0  0  0  0  0
    9.6819    3.2207    0.0000 C   0  0  0  0  0  0  0  0  0  0  0  0
    6.9790    1.9191    0.0000 C   0  0  0  0  0  0  0  0  0  0  0  0
    7.0910    3.4149    0.0000 O   0  0  0  0  0  0  0  0  0  0  0  0
    2.1015    2.6351    0.0000 C   0  0  0  0  0  0  0  0  0  0  0  0
    2.2135    4.1309    0.0000 C   0  0  0  0  0  0  0  0  0  0  0  0
    3.5348    3.0773    0.0000 O   0  0  0  0  0  0  0  0  0  0  0  0
    3.8686    4.5397    0.0000 C   0  0  0  0  0  0  0  0  0  0  0  0
    0.7500    3.2860    0.0000 C   0  0  0  0  0  0  0  0  0  0  0  0
   -0.7500    3.2860    0.0000 C   0  0  0  0  0  0  0  0  0  0  0  0
   -1.0838    4.7484    0.0000 C   0  0  0  0  0  0  0  0  0  0  0  0
   -2.1015    2.6351    0.0000 C   0  0  0  0  0  0  0  0  0  0  0  0
   -3.0367    3.8079    0.0000 O   0  0  0  0  0  0  0  0  0  0  0  0
   -3.0367    1.4624    0.0000 C   0  0  0  0  0  0  0  0  0  0  0  0
   -4.3881    2.1132    0.0000 C   0  0  0  0  0  0  0  0  0  0  0  0
   -3.3705    0.0000    0.0000 C   0  0  0  0  0  0  0  0  0  0  0  0
   -4.8705    0.0000    0.0000 O   0  0  0  0  0  0  0  0  0  0  0  0
   -3.0367   -1.4624    0.0000 C   0  0  0  0  0  0  0  0  0  0  0  0
   -3.7867   -2.7614    0.0000 C   0  0  0  0  0  0  0  0  0  0  0  0
   -4.5199   -1.2388    0.0000 O   0  0  0  0  0  0  0  0  0  0  0  0
   -2.1015   -2.6351    0.0000 C   0  0  0  0  0  0  0  0  0  0  0  0
   -3.0367   -3.8079    0.0000 C   0  0  0  0  0  0  0  0  0  0  0  0
   -4.5199   -3.5843    0.0000 C   0  0  0  0  0  0  0  0  0  0  0  0
   -0.7500   -3.2860    0.0000 O   0  0  0  0  0  0  0  0  0  0  0  0
    0.7500   -3.2860    0.0000 C   0  0  0  0  0  0  0  0  0  0  0  0
    1.0838   -4.7484    0.0000 O   0  0  0  0  0  0  0  0  0  0  0  0
    2.1015   -2.6351    0.0000 C   0  0  0  0  0  0  0  0  0  0  0  0
    2.6628   -3.8629    0.0000 C   0  0  0  0  0  0  0  0  0  0  0  0
    5.8517   -4.2598    0.0000 C   0  0  0  0  0  0  0  0  0  0  0  0
    5.9638   -5.7557    0.0000 C   0  0  0  0  0  0  0  0  0  0  0  0
    7.4174   -5.3855    0.0000 C   0  0  0  0  0  0  0  0  0  0  0  0
    6.5807   -7.1229    0.0000 O   0  0  0  0  0  0  0  0  0  0  0  0
    8.0733   -7.2723    0.0000 C   0  0  0  0  0  0  0  0  0  0  0  0
  1  2  1  0
  2  3  1  0
  3  4  1  0
  4  5  1  0
  5  6  1  0
  6  7  1  0
  7  8  2  0
  7  9  1  0
 10  9  1  1
 10 11  1  0
 11 12  1  6
 11 13  1  0
 13 14  1  0
 14 15  1  1
 16 15  1  6
 16 17  1  0
 17 18  1  1
 17 19  1  0
 19 20  1  6
 21 20  1  1
 21 22  1  0
 22 23  1  0
 23 24  1  1
 23 25  1  0
 25 26  1  0
 26 27  1  1
 27 28  1  0
 27 29  1  0
 26 30  1  0
 30 31  1  6
 19 32  1  0
 32 33  1  6
 32 34  1  0
 34 35  1  0
 32 36  1  0
 36 37  1  0
 37 38  1  6
 37 39  1  0
 39 40  2  0
 39 41  1  0
 41 42  1  1
 41 43  1  0
 43 44  1  6
 43 45  1  0
 45 46  1  6
 45 47  1  0
 45 48  1  0
 48 49  1  6
 49 50  1  0
 48 51  1  0
 51 52  1  0
 52 53  2  0
 52 54  1  0
 54 55  1  1
 14 56  1  0
 56 57  1  0
 57 58  1  6
 57 59  1  0
 59 60  1  0
 57 10  1  0
 54 16  1  0
 30 21  1  0
M  END
>  <ChEMBL_IDs>  (577) 
CHEMBL1668165

>  <target_organism>  (577) 
None

>  <target_molecule_pref_name>  (577) 
nan

>  <# Known Targets>  (577) 
nan

>  <Known Targets>  (577) 
nan

>  <smiles>  (577) 
CCCCCNC(=O)O[C@H]1[C@H](C)O[C@@H](O[C@H]2[C@H](C)[C@@H](O[C@@H]3O[C@H](C)C[C@H](N(C)C)[C@H]3O)[C@](C)(OC)C[C@@H](C)C(=O)[C@H](C)[C@@H](O)[C@](C)(O)[C@@H](CC)OC(=O)[C@@H]2C)C[C@@]1(C)OC

$$$$

     RDKit          2D

 61 63  0  0  0  0  0  0  0  0999 V2000
    5.8573   -1.2990    0.0000 C   0  0  0  0  0  0  0  0  0  0  0  0
    5.1073    0.0000    0.0000 C   0  0  0  0  0  0  0  0  0  0  0  0
    3.6073    0.0000    0.0000 C   0  0  0  0  0  0  0  0  0  0  0  0
    3.2954    1.4672    0.0000 O   0  0  0  0  0  0  0  0  0  0  0  0
    2.4138    2.6807    0.0000 C   0  0  0  0  0  0  0  0  0  0  0  0
    3.4175    3.7955    0.0000 O   0  0  0  0  0  0  0  0  0  0  0  0
    1.1147    3.4307    0.0000 C   0  0  0  0  0  0  0  0  0  0  0  0
    1.8302    4.5756    0.0000 C   0  0  0  0  0  0  0  0  0  0  0  0
   -0.3771    3.5875    0.0000 C   0  0  0  0  0  0  0  0  0  0  0  0
   -0.5339    5.0793    0.0000 O   0  0  0  0  0  0  0  0  0  0  0  0
    0.6797    5.9610    0.0000 C   0  0  0  0  0  0  0  0  0  0  0  0
    0.5229    7.4528    0.0000 C   0  0  0  0  0  0  0  0  0  0  0  0
    1.7364    8.3345    0.0000 C   0  0  0  0  0  0  0  0  0  0  0  0
    2.5752    9.5780    0.0000 C   0  0  0  0  0  0  0  0  0  0  0  0
    0.6574    9.3764    0.0000 O   0  0  0  0  0  0  0  0  0  0  0  0
    1.0203   10.8319    0.0000 C   0  0  0  0  0  0  0  0  0  0  0  0
    3.1067    7.7244    0.0000 C   0  0  0  0  0  0  0  0  0  0  0  0
    4.3202    8.6060    0.0000 O   0  0  0  0  0  0  0  0  0  0  0  0
    5.6906    7.9959    0.0000 C   0  0  0  0  0  0  0  0  0  0  0  0
    5.8474    6.5041    0.0000 O   0  0  0  0  0  0  0  0  0  0  0  0
    6.9041    8.8776    0.0000 C   0  0  0  0  0  0  0  0  0  0  0  0
    8.2744    8.2675    0.0000 N   0  0  0  0  0  0  0  0  0  0  0  0
    9.4879    9.1492    0.0000 C   0  0  0  0  0  0  0  0  0  0  0  0
   10.8582    8.5391    0.0000 C   0  0  0  0  0  0  0  0  0  0  0  0
    8.4312    6.7757    0.0000 C   0  0  0  0  0  0  0  0  0  0  0  0
    9.8015    6.1656    0.0000 C   0  0  0  0  0  0  0  0  0  0  0  0
    3.2635    6.2326    0.0000 C   0  0  0  0  0  0  0  0  0  0  0  0
    4.6338    5.6225    0.0000 C   0  0  0  0  0  0  0  0  0  0  0  0
    2.0500    5.3509    0.0000 O   0  0  0  0  0  0  0  0  0  0  0  0
   -1.8037    3.1240    0.0000 C   0  0  0  0  0  0  0  0  0  0  0  0
   -2.5537    4.4231    0.0000 C   0  0  0  0  0  0  0  0  0  0  0  0
   -2.9184    2.1203    0.0000 C   0  0  0  0  0  0  0  0  0  0  0  0
   -4.1319    3.0020    0.0000 O   0  0  0  0  0  0  0  0  0  0  0  0
   -5.5022    2.3919    0.0000 C   0  0  0  0  0  0  0  0  0  0  0  0
   -6.7157    3.2736    0.0000 O   0  0  0  0  0  0  0  0  0  0  0  0
   -8.0861    2.6635    0.0000 C   0  0  0  0  0  0  0  0  0  0  0  0
   -9.2996    3.5451    0.0000 C   0  0  0  0  0  0  0  0  0  0  0  0
   -8.2428    1.1717    0.0000 C   0  0  0  0  0  0  0  0  0  0  0  0
   -7.0293    0.2900    0.0000 C   0  0  0  0  0  0  0  0  0  0  0  0
   -7.1861   -1.2018    0.0000 N   0  0  0  0  0  0  0  0  0  0  0  0
   -8.5564   -1.8119    0.0000 C   0  0  0  0  0  0  0  0  0  0  0  0
   -5.9726   -2.0835    0.0000 C   0  0  0  0  0  0  0  0  0  0  0  0
   -5.6590    0.9001    0.0000 C   0  0  0  0  0  0  0  0  0  0  0  0
   -5.0760    0.3564    0.0000 O   0  0  0  0  0  0  0  0  0  0  0  0
   -3.5285    0.7500    0.0000 C   0  0  0  0  0  0  0  0  0  0  0  0
   -4.2257    0.3635    0.0000 C   0  0  0  0  0  0  0  0  0  0  0  0
   -4.5705    1.8290    0.0000 O   0  0  0  0  0  0  0  0  0  0  0  0
   -5.8948    1.1247    0.0000 C   0  0  0  0  0  0  0  0  0  0  0  0
   -3.5285   -0.7500    0.0000 C   0  0  0  0  0  0  0  0  0  0  0  0
   -2.9184   -2.1203    0.0000 C   0  0  0  0  0  0  0  0  0  0  0  0
   -4.1319   -3.0020    0.0000 C   0  0  0  0  0  0  0  0  0  0  0  0
   -1.8037   -3.1240    0.0000 C   0  0  0  0  0  0  0  0  0  0  0  0
   -2.5537   -4.4231    0.0000 O   0  0  0  0  0  0  0  0  0  0  0  0
   -0.3771   -3.5875    0.0000 N   0  0  0  0  0  0  0  0  0  0  0  0
    1.1147   -3.4307    0.0000 C   0  0  0  0  0  0  0  0  0  0  0  0
    1.5782   -4.8573    0.0000 C   0  0  0  0  0  0  0  0  0  0  0  0
    2.4138   -2.6807    0.0000 C   0  0  0  0  0  0  0  0  0  0  0  0
    3.4175   -3.7955    0.0000 O   0  0  0  0  0  0  0  0  0  0  0  0
    3.2954   -1.4672    0.0000 C   0  0  0  0  0  0  0  0  0  0  0  0
    4.7726   -1.2067    0.0000 C   0  0  0  0  0  0  0  0  0  0  0  0
    4.0903   -2.7393    0.0000 O   0  0  0  0  0  0  0  0  0  0  0  0
  1  2  1  0
  3  2  1  6
  3  4  1  0
  4  5  1  0
  5  6  2  0
  5  7  1  0
  7  8  1  1
  7  9  1  0
  9 10  1  6
 11 10  1  1
 11 12  1  0
 12 13  1  0
 13 14  1  6
 13 15  1  0
 15 16  1  0
 13 17  1  0
 17 18  1  1
 18 19  1  0
 19 20  2  0
 19 21  1  0
 21 22  1  0
 22 23  1  0
 23 24  1  0
 22 25  1  0
 25 26  1  0
 17 27  1  0
 27 28  1  6
 27 29  1  0
  9 30  1  0
 30 31  1  1
 30 32  1  0
 32 33  1  6
 34 33  1  1
 34 35  1  0
 35 36  1  0
 36 37  1  1
 36 38  1  0
 38 39  1  0
 39 40  1  1
 40 41  1  0
 40 42  1  0
 39 43  1  0
 43 44  1  6
 32 45  1  0
 45 46  1  6
 45 47  1  0
 47 48  1  0
 45 49  1  0
 49 50  1  0
 50 51  1  6
 50 52  1  0
 52 53  2  0
 52 54  1  0
 54 55  1  0
 55 56  1  1
 55 57  1  0
 57 58  1  6
 57 59  1  0
 59 60  1  6
 59 61  1  0
 59  3  1  0
 29 11  1  0
 43 34  1  0
M  END
>  <ChEMBL_IDs>  (578) 
CHEMBL2179468

>  <target_organism>  (578) 
Plasmodium falciparum

>  <target_molecule_pref_name>  (578) 
nan

>  <# Known Targets>  (578) 
nan

>  <Known Targets>  (578) 
nan

>  <smiles>  (578) 
CC[C@H]1OC(=O)[C@H](C)[C@@H](O[C@H]2C[C@@](C)(OC)[C@@H](OC(=O)CN(CC)CC)[C@H](C)O2)[C@H](C)[C@@H](O[C@@H]2O[C@H](C)C[C@H](N(C)C)[C@H]2O)[C@](C)(OC)C[C@@H](C)C(=O)N[C@H](C)[C@@H](O)[C@]1(C)O

$$$$

     RDKit          2D

 60 62  0  0  0  0  0  0  0  0999 V2000
   12.5333  -10.0616    0.0000 C   0  0  0  0  0  0  0  0  0  0  0  0
   12.6901   -8.5698    0.0000 C   0  0  0  0  0  0  0  0  0  0  0  0
   11.4765   -7.6881    0.0000 C   0  0  0  0  0  0  0  0  0  0  0  0
   11.6333   -6.1963    0.0000 C   0  0  0  0  0  0  0  0  0  0  0  0
   10.4198   -5.3146    0.0000 C   0  0  0  0  0  0  0  0  0  0  0  0
   10.5766   -3.8228    0.0000 N   0  0  0  0  0  0  0  0  0  0  0  0
    9.3631   -2.9412    0.0000 C   0  0  0  0  0  0  0  0  0  0  0  0
    7.9927   -3.5513    0.0000 O   0  0  0  0  0  0  0  0  0  0  0  0
    9.5199   -1.4494    0.0000 O   0  0  0  0  0  0  0  0  0  0  0  0
    8.3063   -0.5677    0.0000 C   0  0  0  0  0  0  0  0  0  0  0  0
    6.9360   -1.1778    0.0000 C   0  0  0  0  0  0  0  0  0  0  0  0
    6.7792   -2.6696    0.0000 C   0  0  0  0  0  0  0  0  0  0  0  0
    5.7225   -0.2961    0.0000 O   0  0  0  0  0  0  0  0  0  0  0  0
    5.8793    1.1956    0.0000 C   0  0  0  0  0  0  0  0  0  0  0  0
    4.6658    2.0773    0.0000 O   0  0  0  0  0  0  0  0  0  0  0  0
    3.2954    1.4672    0.0000 C   0  0  0  0  0  0  0  0  0  0  0  0
    3.6073    0.0000    0.0000 C   0  0  0  0  0  0  0  0  0  0  0  0
    4.9172   -0.3267    0.0000 C   0  0  0  0  0  0  0  0  0  0  0  0
    3.2954   -1.4672    0.0000 C   0  0  0  0  0  0  0  0  0  0  0  0
    4.6658   -2.0773    0.0000 O   0  0  0  0  0  0  0  0  0  0  0  0
    2.4138   -2.6807    0.0000 O   0  0  0  0  0  0  0  0  0  0  0  0
    1.1147   -3.4307    0.0000 C   0  0  0  0  0  0  0  0  0  0  0  0
    1.5782   -4.8573    0.0000 C   0  0  0  0  0  0  0  0  0  0  0  0
    0.5745   -5.9720    0.0000 C   0  0  0  0  0  0  0  0  0  0  0  0
   -0.3771   -3.5875    0.0000 C   0  0  0  0  0  0  0  0  0  0  0  0
    0.3271   -4.9120    0.0000 C   0  0  0  0  0  0  0  0  0  0  0  0
   -1.3412   -4.7366    0.0000 O   0  0  0  0  0  0  0  0  0  0  0  0
   -1.8037   -3.1240    0.0000 C   0  0  0  0  0  0  0  0  0  0  0  0
   -2.5537   -4.4231    0.0000 O   0  0  0  0  0  0  0  0  0  0  0  0
   -2.9184   -2.1203    0.0000 C   0  0  0  0  0  0  0  0  0  0  0  0
   -4.1319   -3.0020    0.0000 C   0  0  0  0  0  0  0  0  0  0  0  0
   -3.5285   -0.7500    0.0000 N   0  0  0  0  0  0  0  0  0  0  0  0
   -4.9957   -1.0619    0.0000 C   0  0  0  0  0  0  0  0  0  0  0  0
   -3.5285    0.7500    0.0000 C   0  0  0  0  0  0  0  0  0  0  0  0
   -2.9184    2.1203    0.0000 C   0  0  0  0  0  0  0  0  0  0  0  0
   -4.1319    3.0020    0.0000 C   0  0  0  0  0  0  0  0  0  0  0  0
   -1.8037    3.1240    0.0000 C   0  0  0  0  0  0  0  0  0  0  0  0
   -0.3771    3.5875    0.0000 C   0  0  0  0  0  0  0  0  0  0  0  0
   -1.3412    4.7366    0.0000 C   0  0  0  0  0  0  0  0  0  0  0  0
    0.3271    4.9120    0.0000 O   0  0  0  0  0  0  0  0  0  0  0  0
    1.1147    3.4307    0.0000 C   0  0  0  0  0  0  0  0  0  0  0  0
    1.5782    4.8573    0.0000 O   0  0  0  0  0  0  0  0  0  0  0  0
    3.0455    5.1692    0.0000 C   0  0  0  0  0  0  0  0  0  0  0  0
    4.0492    4.0545    0.0000 O   0  0  0  0  0  0  0  0  0  0  0  0
    5.5164    4.3663    0.0000 C   0  0  0  0  0  0  0  0  0  0  0  0
    6.5201    3.2516    0.0000 C   0  0  0  0  0  0  0  0  0  0  0  0
    5.9799    5.7929    0.0000 C   0  0  0  0  0  0  0  0  0  0  0  0
    4.9762    6.9077    0.0000 C   0  0  0  0  0  0  0  0  0  0  0  0
    5.4397    8.3342    0.0000 N   0  0  0  0  0  0  0  0  0  0  0  0
    6.9070    8.6461    0.0000 C   0  0  0  0  0  0  0  0  0  0  0  0
    4.4360    9.4490    0.0000 C   0  0  0  0  0  0  0  0  0  0  0  0
    3.5090    6.5958    0.0000 C   0  0  0  0  0  0  0  0  0  0  0  0
    2.5053    7.7105    0.0000 O   0  0  0  0  0  0  0  0  0  0  0  0
    2.4138    2.6807    0.0000 C   0  0  0  0  0  0  0  0  0  0  0  0
    3.5330    3.4356    0.0000 C   0  0  0  0  0  0  0  0  0  0  0  0
    7.2496    1.8058    0.0000 C   0  0  0  0  0  0  0  0  0  0  0  0
    8.4631    0.9241    0.0000 C   0  0  0  0  0  0  0  0  0  0  0  0
    9.1207    2.2723    0.0000 C   0  0  0  0  0  0  0  0  0  0  0  0
    9.9050    0.5106    0.0000 O   0  0  0  0  0  0  0  0  0  0  0  0
   10.9840    1.5526    0.0000 C   0  0  0  0  0  0  0  0  0  0  0  0
  1  2  1  0
  2  3  1  0
  3  4  1  0
  4  5  1  0
  5  6  1  0
  6  7  1  0
  7  8  2  0
  7  9  1  0
  9 10  1  0
 10 11  1  0
 11 12  1  0
 11 13  1  0
 13 14  1  0
 14 15  1  0
 15 16  1  0
 16 17  1  0
 17 18  1  0
 17 19  1  0
 19 20  2  0
 19 21  1  0
 21 22  1  0
 22 23  1  0
 23 24  1  0
 22 25  1  0
 25 26  1  0
 25 27  1  0
 25 28  1  0
 28 29  1  0
 28 30  1  0
 30 31  1  0
 30 32  1  0
 32 33  1  0
 32 34  1  0
 34 35  1  0
 35 36  1  0
 35 37  1  0
 37 38  1  0
 38 39  1  0
 38 40  1  0
 38 41  1  0
 41 42  1  0
 42 43  1  0
 43 44  1  0
 44 45  1  0
 45 46  1  0
 45 47  1  0
 47 48  1  0
 48 49  1  0
 49 50  1  0
 49 51  1  0
 48 52  1  0
 52 53  1  0
 41 54  1  0
 54 55  1  0
 14 56  1  0
 56 57  1  0
 57 58  1  0
 57 59  1  0
 59 60  1  0
 57 10  1  0
 54 16  1  0
 52 43  1  0
M  END
>  <ChEMBL_IDs>  (579) 
nan

>  <target_organism>  (579) 
nan

>  <target_molecule_pref_name>  (579) 
nan

>  <# Known Targets>  (579) 
nan

>  <Known Targets>  (579) 
nan

>  <smiles>  (579) 
CCCCCNC(=O)OC1C(C)OC(OC2C(C)C(=O)OC(CC)C(C)(O)C(O)C(C)N(C)CC(C)CC(C)(O)C(OC3OC(C)CC(N(C)C)C3O)C2C)CC1(C)OC

$$$$

     RDKit          2D

 58 60  0  0  0  0  0  0  0  0999 V2000
   12.3705   -5.1962    0.0000 C   0  0  0  0  0  0  0  0  0  0  0  0
   11.6205   -3.8971    0.0000 C   0  0  0  0  0  0  0  0  0  0  0  0
   10.1205   -3.8971    0.0000 C   0  0  0  0  0  0  0  0  0  0  0  0
    9.3705   -2.5981    0.0000 C   0  0  0  0  0  0  0  0  0  0  0  0
    7.8705   -2.5981    0.0000 C   0  0  0  0  0  0  0  0  0  0  0  0
    7.1205   -1.2990    0.0000 C   0  0  0  0  0  0  0  0  0  0  0  0
    5.6205   -1.2990    0.0000 C   0  0  0  0  0  0  0  0  0  0  0  0
    4.8705    0.0000    0.0000 N   0  0  0  0  0  0  0  0  0  0  0  0
    3.3705    0.0000    0.0000 C   0  0  0  0  0  0  0  0  0  0  0  0
    3.0367   -1.4624    0.0000 C   0  0  0  0  0  0  0  0  0  0  0  0
    4.3881   -2.1132    0.0000 C   0  0  0  0  0  0  0  0  0  0  0  0
    2.1015   -2.6351    0.0000 C   0  0  0  0  0  0  0  0  0  0  0  0
    3.0367   -3.8079    0.0000 O   0  0  0  0  0  0  0  0  0  0  0  0
    0.7500   -3.2860    0.0000 C   0  0  0  0  0  0  0  0  0  0  0  0
    1.8496   -4.3062    0.0000 C   0  0  0  0  0  0  0  0  0  0  0  0
    0.2020   -4.6823    0.0000 O   0  0  0  0  0  0  0  0  0  0  0  0
   -0.7500   -3.2860    0.0000 C   0  0  0  0  0  0  0  0  0  0  0  0
   -1.0838   -4.7484    0.0000 C   0  0  0  0  0  0  0  0  0  0  0  0
   -2.5171   -5.1905    0.0000 C   0  0  0  0  0  0  0  0  0  0  0  0
   -2.1015   -2.6351    0.0000 O   0  0  0  0  0  0  0  0  0  0  0  0
   -3.0367   -1.4624    0.0000 C   0  0  0  0  0  0  0  0  0  0  0  0
   -4.3881   -2.1132    0.0000 O   0  0  0  0  0  0  0  0  0  0  0  0
   -3.3705    0.0000    0.0000 C   0  0  0  0  0  0  0  0  0  0  0  0
   -4.6804   -0.3267    0.0000 C   0  0  0  0  0  0  0  0  0  0  0  0
   -3.0367    1.4624    0.0000 C   0  0  0  0  0  0  0  0  0  0  0  0
   -4.3881    2.1132    0.0000 O   0  0  0  0  0  0  0  0  0  0  0  0
   -5.6275    1.2682    0.0000 C   0  0  0  0  0  0  0  0  0  0  0  0
   -6.9790    1.9191    0.0000 C   0  0  0  0  0  0  0  0  0  0  0  0
   -8.2183    1.0741    0.0000 C   0  0  0  0  0  0  0  0  0  0  0  0
   -9.6719    0.7039    0.0000 C   0  0  0  0  0  0  0  0  0  0  0  0
   -8.8352    2.4413    0.0000 O   0  0  0  0  0  0  0  0  0  0  0  0
  -10.3278    2.5907    0.0000 C   0  0  0  0  0  0  0  0  0  0  0  0
   -8.1062   -0.4217    0.0000 C   0  0  0  0  0  0  0  0  0  0  0  0
   -9.3456   -1.2667    0.0000 O   0  0  0  0  0  0  0  0  0  0  0  0
   -6.7548   -1.0725    0.0000 C   0  0  0  0  0  0  0  0  0  0  0  0
   -6.6427   -2.5684    0.0000 C   0  0  0  0  0  0  0  0  0  0  0  0
   -5.5154   -0.2276    0.0000 O   0  0  0  0  0  0  0  0  0  0  0  0
   -2.1015    2.6351    0.0000 C   0  0  0  0  0  0  0  0  0  0  0  0
   -3.0367    3.8079    0.0000 C   0  0  0  0  0  0  0  0  0  0  0  0
   -0.7500    3.2860    0.0000 C   0  0  0  0  0  0  0  0  0  0  0  0
   -1.0838    4.7484    0.0000 O   0  0  0  0  0  0  0  0  0  0  0  0
    0.0158    5.7686    0.0000 C   0  0  0  0  0  0  0  0  0  0  0  0
    1.4492    5.3265    0.0000 O   0  0  0  0  0  0  0  0  0  0  0  0
    2.5487    6.3467    0.0000 C   0  0  0  0  0  0  0  0  0  0  0  0
    3.9821    5.9046    0.0000 C   0  0  0  0  0  0  0  0  0  0  0  0
    2.2150    7.8091    0.0000 C   0  0  0  0  0  0  0  0  0  0  0  0
    0.7816    8.2513    0.0000 C   0  0  0  0  0  0  0  0  0  0  0  0
    0.4478    9.7137    0.0000 N   0  0  0  0  0  0  0  0  0  0  0  0
    1.5474   10.7339    0.0000 C   0  0  0  0  0  0  0  0  0  0  0  0
   -0.9855   10.1558    0.0000 C   0  0  0  0  0  0  0  0  0  0  0  0
   -0.3180    7.2310    0.0000 C   0  0  0  0  0  0  0  0  0  0  0  0
   -1.7513    7.6731    0.0000 O   0  0  0  0  0  0  0  0  0  0  0  0
    0.7500    3.2860    0.0000 C   0  0  0  0  0  0  0  0  0  0  0  0
    0.2020    4.6823    0.0000 C   0  0  0  0  0  0  0  0  0  0  0  0
    1.8496    4.3062    0.0000 O   0  0  0  0  0  0  0  0  0  0  0  0
    2.1015    2.6351    0.0000 C   0  0  0  0  0  0  0  0  0  0  0  0
    3.0367    1.4624    0.0000 C   0  0  0  0  0  0  0  0  0  0  0  0
    4.3881    2.1132    0.0000 C   0  0  0  0  0  0  0  0  0  0  0  0
  1  2  1  0
  2  3  1  0
  3  4  1  0
  4  5  1  0
  5  6  1  0
  6  7  1  0
  7  8  1  0
  9  8  1  6
  9 10  1  0
 10 11  1  6
 10 12  1  0
 12 13  1  1
 12 14  1  0
 14 15  1  1
 14 16  1  0
 14 17  1  0
 17 18  1  1
 18 19  1  0
 17 20  1  0
 20 21  1  0
 21 22  2  0
 21 23  1  0
 23 24  1  6
 23 25  1  0
 25 26  1  1
 26 27  1  0
 27 28  1  0
 28 29  1  0
 29 30  1  0
 29 31  1  0
 31 32  1  0
 29 33  1  0
 33 34  1  0
 33 35  1  0
 35 36  1  0
 35 37  1  0
 25 38  1  0
 38 39  1  6
 38 40  1  0
 40 41  1  1
 41 42  1  0
 42 43  1  0
 43 44  1  0
 44 45  1  0
 44 46  1  0
 46 47  1  0
 47 48  1  0
 48 49  1  0
 48 50  1  0
 47 51  1  0
 51 52  1  0
 40 53  1  0
 53 54  1  1
 53 55  1  0
 53 56  1  0
 56 57  1  0
 57 58  1  1
 57  9  1  0
 37 27  1  0
 51 42  1  0
M  END
>  <ChEMBL_IDs>  (580) 
CHEMBL322956

>  <target_organism>  (580) 
None

>  <target_molecule_pref_name>  (580) 
nan

>  <# Known Targets>  (580) 
nan

>  <Known Targets>  (580) 
nan

>  <smiles>  (580) 
CCCCCCCN[C@@H]1[C@H](C)[C@@H](O)[C@](C)(O)[C@@H](CC)OC(=O)[C@H](C)[C@@H](OC2CC(C)(OC)C(O)C(C)O2)[C@H](C)[C@@H](OC2OC(C)CC(N(C)C)C2O)[C@](C)(O)C[C@H]1C

$$$$

     RDKit          2D

 61 63  0  0  0  0  0  0  0  0999 V2000
    5.8573   -1.2990    0.0000 C   0  0  0  0  0  0  0  0  0  0  0  0
    5.1073    0.0000    0.0000 C   0  0  0  0  0  0  0  0  0  0  0  0
    3.6073    0.0000    0.0000 C   0  0  0  0  0  0  0  0  0  0  0  0
    3.2954    1.4672    0.0000 O   0  0  0  0  0  0  0  0  0  0  0  0
    2.4138    2.6807    0.0000 C   0  0  0  0  0  0  0  0  0  0  0  0
    3.4175    3.7955    0.0000 O   0  0  0  0  0  0  0  0  0  0  0  0
    1.1147    3.4307    0.0000 C   0  0  0  0  0  0  0  0  0  0  0  0
    1.8302    4.5756    0.0000 C   0  0  0  0  0  0  0  0  0  0  0  0
   -0.3771    3.5875    0.0000 C   0  0  0  0  0  0  0  0  0  0  0  0
   -0.5339    5.0793    0.0000 O   0  0  0  0  0  0  0  0  0  0  0  0
    0.6797    5.9610    0.0000 C   0  0  0  0  0  0  0  0  0  0  0  0
    0.5229    7.4528    0.0000 C   0  0  0  0  0  0  0  0  0  0  0  0
    1.7364    8.3345    0.0000 C   0  0  0  0  0  0  0  0  0  0  0  0
    2.5752    9.5780    0.0000 C   0  0  0  0  0  0  0  0  0  0  0  0
    0.6574    9.3764    0.0000 O   0  0  0  0  0  0  0  0  0  0  0  0
    1.0203   10.8319    0.0000 C   0  0  0  0  0  0  0  0  0  0  0  0
    3.1067    7.7244    0.0000 C   0  0  0  0  0  0  0  0  0  0  0  0
    4.3202    8.6060    0.0000 O   0  0  0  0  0  0  0  0  0  0  0  0
    3.2635    6.2326    0.0000 C   0  0  0  0  0  0  0  0  0  0  0  0
    4.6338    5.6225    0.0000 C   0  0  0  0  0  0  0  0  0  0  0  0
    2.0500    5.3509    0.0000 O   0  0  0  0  0  0  0  0  0  0  0  0
   -1.8037    3.1240    0.0000 C   0  0  0  0  0  0  0  0  0  0  0  0
   -2.5537    4.4231    0.0000 C   0  0  0  0  0  0  0  0  0  0  0  0
   -2.9184    2.1203    0.0000 C   0  0  0  0  0  0  0  0  0  0  0  0
   -4.1319    3.0020    0.0000 O   0  0  0  0  0  0  0  0  0  0  0  0
   -5.5022    2.3919    0.0000 C   0  0  0  0  0  0  0  0  0  0  0  0
   -6.7157    3.2736    0.0000 O   0  0  0  0  0  0  0  0  0  0  0  0
   -8.0861    2.6635    0.0000 C   0  0  0  0  0  0  0  0  0  0  0  0
   -9.2996    3.5451    0.0000 C   0  0  0  0  0  0  0  0  0  0  0  0
   -8.2428    1.1717    0.0000 C   0  0  0  0  0  0  0  0  0  0  0  0
   -7.0293    0.2900    0.0000 C   0  0  0  0  0  0  0  0  0  0  0  0
   -7.1861   -1.2018    0.0000 N   0  0  0  0  0  0  0  0  0  0  0  0
   -8.5564   -1.8119    0.0000 C   0  0  0  0  0  0  0  0  0  0  0  0
   -5.9726   -2.0835    0.0000 C   0  0  0  0  0  0  0  0  0  0  0  0
   -5.6590    0.9001    0.0000 C   0  0  0  0  0  0  0  0  0  0  0  0
   -5.0760    0.3564    0.0000 O   0  0  0  0  0  0  0  0  0  0  0  0
   -3.5285    0.7500    0.0000 C   0  0  0  0  0  0  0  0  0  0  0  0
   -4.2257    0.3635    0.0000 C   0  0  0  0  0  0  0  0  0  0  0  0
   -4.5705    1.8290    0.0000 O   0  0  0  0  0  0  0  0  0  0  0  0
   -3.5285   -0.7500    0.0000 C   0  0  0  0  0  0  0  0  0  0  0  0
   -2.9184   -2.1203    0.0000 C   0  0  0  0  0  0  0  0  0  0  0  0
   -4.1319   -3.0020    0.0000 C   0  0  0  0  0  0  0  0  0  0  0  0
   -1.8037   -3.1240    0.0000 C   0  0  0  0  0  0  0  0  0  0  0  0
   -0.3771   -3.5875    0.0000 N   0  0  0  0  0  0  0  0  0  0  0  0
   -0.5339   -5.0793    0.0000 C   0  0  0  0  0  0  0  0  0  0  0  0
   -1.9042   -5.6894    0.0000 C   0  0  0  0  0  0  0  0  0  0  0  0
   -2.0610   -7.1812    0.0000 C   0  0  0  0  0  0  0  0  0  0  0  0
   -3.4313   -7.7913    0.0000 N   0  0  0  0  0  0  0  0  0  0  0  0
   -3.5881   -9.2831    0.0000 C   0  0  0  0  0  0  0  0  0  0  0  0
   -2.3746  -10.1648    0.0000 O   0  0  0  0  0  0  0  0  0  0  0  0
   -4.9584   -9.8932    0.0000 N   0  0  0  0  0  0  0  0  0  0  0  0
   -5.1152  -11.3850    0.0000 C   0  0  0  0  0  0  0  0  0  0  0  0
   -6.4855  -11.9951    0.0000 C   0  0  0  0  0  0  0  0  0  0  0  0
   -3.9017  -12.2667    0.0000 C   0  0  0  0  0  0  0  0  0  0  0  0
    1.1147   -3.4307    0.0000 C   0  0  0  0  0  0  0  0  0  0  0  0
    1.5782   -4.8573    0.0000 C   0  0  0  0  0  0  0  0  0  0  0  0
    2.4138   -2.6807    0.0000 C   0  0  0  0  0  0  0  0  0  0  0  0
    3.4175   -3.7955    0.0000 O   0  0  0  0  0  0  0  0  0  0  0  0
    3.2954   -1.4672    0.0000 C   0  0  0  0  0  0  0  0  0  0  0  0
    4.7726   -1.2067    0.0000 C   0  0  0  0  0  0  0  0  0  0  0  0
    4.0903   -2.7393    0.0000 O   0  0  0  0  0  0  0  0  0  0  0  0
  1  2  1  0
  3  2  1  6
  3  4  1  0
  4  5  1  0
  5  6  2  0
  5  7  1  0
  7  8  1  1
  7  9  1  0
  9 10  1  6
 11 10  1  1
 11 12  1  0
 12 13  1  0
 13 14  1  6
 13 15  1  0
 15 16  1  0
 13 17  1  0
 17 18  1  1
 17 19  1  0
 19 20  1  6
 19 21  1  0
  9 22  1  0
 22 23  1  1
 22 24  1  0
 24 25  1  6
 26 25  1  1
 26 27  1  0
 27 28  1  0
 28 29  1  1
 28 30  1  0
 30 31  1  0
 31 32  1  1
 32 33  1  0
 32 34  1  0
 31 35  1  0
 35 36  1  6
 24 37  1  0
 37 38  1  6
 37 39  1  0
 37 40  1  0
 40 41  1  0
 41 42  1  6
 41 43  1  0
 43 44  1  0
 44 45  1  0
 45 46  1  0
 46 47  1  0
 47 48  1  0
 48 49  1  0
 49 50  2  0
 49 51  1  0
 51 52  1  0
 52 53  1  0
 52 54  1  0
 44 55  1  0
 55 56  1  1
 55 57  1  0
 57 58  1  6
 57 59  1  0
 59 60  1  6
 59 61  1  0
 59  3  1  0
 21 11  1  0
 35 26  1  0
M  END
>  <ChEMBL_IDs>  (581) 
CHEMBL555684

>  <target_organism>  (581) 
Rattus norvegicus

>  <target_molecule_pref_name>  (581) 
nan

>  <# Known Targets>  (581) 
nan

>  <Known Targets>  (581) 
nan

>  <smiles>  (581) 
CC[C@H]1OC(=O)[C@H](C)[C@@H](O[C@H]2C[C@@](C)(OC)[C@@H](O)[C@H](C)O2)[C@H](C)[C@@H](O[C@@H]2O[C@H](C)C[C@H](N(C)C)[C@H]2O)[C@](C)(O)C[C@@H](C)CN(CCCNC(=O)NC(C)C)[C@H](C)[C@@H](O)[C@]1(C)O

$$$$

     RDKit          2D

 59 61  0  0  0  0  0  0  0  0999 V2000
    8.0006   16.5424    0.0000 C   0  0  0  0  0  0  0  0  0  0  0  0
    8.3635   15.0870    0.0000 C   0  0  0  0  0  0  0  0  0  0  0  0
    7.2845   14.0450    0.0000 C   0  0  0  0  0  0  0  0  0  0  0  0
    7.6474   12.5895    0.0000 C   0  0  0  0  0  0  0  0  0  0  0  0
    6.5684   11.5475    0.0000 C   0  0  0  0  0  0  0  0  0  0  0  0
    6.9313   10.0921    0.0000 C   0  0  0  0  0  0  0  0  0  0  0  0
    5.8523    9.0501    0.0000 N   0  0  0  0  0  0  0  0  0  0  0  0
    6.2151    7.5947    0.0000 C   0  0  0  0  0  0  0  0  0  0  0  0
    5.1361    6.5527    0.0000 C   0  0  0  0  0  0  0  0  0  0  0  0
    4.2973    7.7962    0.0000 O   0  0  0  0  0  0  0  0  0  0  0  0
    3.7658    5.9426    0.0000 C   0  0  0  0  0  0  0  0  0  0  0  0
    2.5523    6.8242    0.0000 C   0  0  0  0  0  0  0  0  0  0  0  0
    3.6090    4.4508    0.0000 O   0  0  0  0  0  0  0  0  0  0  0  0
    4.8225    3.5691    0.0000 C   0  0  0  0  0  0  0  0  0  0  0  0
    4.6658    2.0773    0.0000 O   0  0  0  0  0  0  0  0  0  0  0  0
    3.2954    1.4672    0.0000 C   0  0  0  0  0  0  0  0  0  0  0  0
    3.6073    0.0000    0.0000 C   0  0  0  0  0  0  0  0  0  0  0  0
    5.1073    0.0000    0.0000 C   0  0  0  0  0  0  0  0  0  0  0  0
    3.2954   -1.4672    0.0000 C   0  0  0  0  0  0  0  0  0  0  0  0
    4.6658   -2.0773    0.0000 O   0  0  0  0  0  0  0  0  0  0  0  0
    4.8225   -3.5691    0.0000 C   0  0  0  0  0  0  0  0  0  0  0  0
    3.6090   -4.4508    0.0000 O   0  0  0  0  0  0  0  0  0  0  0  0
    3.7658   -5.9426    0.0000 C   0  0  0  0  0  0  0  0  0  0  0  0
    2.5523   -6.8242    0.0000 C   0  0  0  0  0  0  0  0  0  0  0  0
    5.1361   -6.5527    0.0000 C   0  0  0  0  0  0  0  0  0  0  0  0
    6.3497   -5.6710    0.0000 C   0  0  0  0  0  0  0  0  0  0  0  0
    7.7200   -6.2811    0.0000 N   0  0  0  0  0  0  0  0  0  0  0  0
    7.8768   -7.7729    0.0000 C   0  0  0  0  0  0  0  0  0  0  0  0
    8.9335   -5.3994    0.0000 C   0  0  0  0  0  0  0  0  0  0  0  0
    6.1929   -4.1792    0.0000 C   0  0  0  0  0  0  0  0  0  0  0  0
    7.4064   -3.2975    0.0000 O   0  0  0  0  0  0  0  0  0  0  0  0
    2.4138   -2.6807    0.0000 C   0  0  0  0  0  0  0  0  0  0  0  0
    3.8692   -3.0436    0.0000 C   0  0  0  0  0  0  0  0  0  0  0  0
    2.6225   -4.1661    0.0000 O   0  0  0  0  0  0  0  0  0  0  0  0
    1.1147   -3.4307    0.0000 C   0  0  0  0  0  0  0  0  0  0  0  0
   -0.3771   -3.5875    0.0000 C   0  0  0  0  0  0  0  0  0  0  0  0
   -0.5339   -5.0793    0.0000 C   0  0  0  0  0  0  0  0  0  0  0  0
   -1.8037   -3.1240    0.0000 C   0  0  0  0  0  0  0  0  0  0  0  0
   -2.9184   -2.1203    0.0000 N   0  0  0  0  0  0  0  0  0  0  0  0
   -3.5285   -0.7500    0.0000 C   0  0  0  0  0  0  0  0  0  0  0  0
   -4.9957   -1.0619    0.0000 C   0  0  0  0  0  0  0  0  0  0  0  0
   -3.5285    0.7500    0.0000 C   0  0  0  0  0  0  0  0  0  0  0  0
   -4.9957    1.0619    0.0000 O   0  0  0  0  0  0  0  0  0  0  0  0
   -2.9184    2.1203    0.0000 C   0  0  0  0  0  0  0  0  0  0  0  0
   -4.4175    2.1727    0.0000 C   0  0  0  0  0  0  0  0  0  0  0  0
   -3.4314    3.5299    0.0000 O   0  0  0  0  0  0  0  0  0  0  0  0
   -1.8037    3.1240    0.0000 C   0  0  0  0  0  0  0  0  0  0  0  0
   -2.5537    4.4231    0.0000 C   0  0  0  0  0  0  0  0  0  0  0  0
   -1.8037    5.7221    0.0000 C   0  0  0  0  0  0  0  0  0  0  0  0
   -0.3771    3.5875    0.0000 O   0  0  0  0  0  0  0  0  0  0  0  0
    1.1147    3.4307    0.0000 C   0  0  0  0  0  0  0  0  0  0  0  0
    1.5782    4.8573    0.0000 O   0  0  0  0  0  0  0  0  0  0  0  0
    2.4138    2.6807    0.0000 C   0  0  0  0  0  0  0  0  0  0  0  0
    3.0475    3.8728    0.0000 C   0  0  0  0  0  0  0  0  0  0  0  0
    6.1929    4.1792    0.0000 C   0  0  0  0  0  0  0  0  0  0  0  0
    6.3497    5.6710    0.0000 C   0  0  0  0  0  0  0  0  0  0  0  0
    7.7915    5.2575    0.0000 C   0  0  0  0  0  0  0  0  0  0  0  0
    7.0072    7.0192    0.0000 O   0  0  0  0  0  0  0  0  0  0  0  0
    8.5036    7.1238    0.0000 C   0  0  0  0  0  0  0  0  0  0  0  0
  1  2  1  0
  2  3  1  0
  3  4  1  0
  4  5  1  0
  5  6  1  0
  6  7  1  0
  7  8  1  0
  8  9  1  0
  9 10  1  1
  9 11  1  0
 11 12  1  1
 11 13  1  0
 13 14  1  0
 14 15  1  6
 15 16  1  0
 16 17  1  0
 17 18  1  6
 17 19  1  0
 19 20  1  1
 21 20  1  1
 21 22  1  0
 22 23  1  0
 23 24  1  1
 23 25  1  0
 25 26  1  0
 26 27  1  1
 27 28  1  0
 27 29  1  0
 26 30  1  0
 30 31  1  6
 19 32  1  0
 32 33  1  1
 32 34  1  0
 32 35  1  0
 35 36  1  0
 36 37  1  1
 36 38  1  0
 38 39  1  0
 39 40  1  0
 40 41  1  6
 40 42  1  0
 42 43  1  1
 42 44  1  0
 44 45  1  1
 44 46  1  0
 44 47  1  0
 47 48  1  1
 48 49  1  0
 47 50  1  0
 50 51  1  0
 51 52  2  0
 51 53  1  0
 53 54  1  6
 14 55  1  0
 55 56  1  0
 56 57  1  1
 56 58  1  0
 58 59  1  0
 56  9  1  0
 53 16  1  0
 30 21  1  0
M  END
>  <ChEMBL_IDs>  (582) 
CHEMBL330752

>  <target_organism>  (582) 
Homo sapiens

>  <target_molecule_pref_name>  (582) 
nan

>  <# Known Targets>  (582) 
nan

>  <Known Targets>  (582) 
nan

>  <smiles>  (582) 
CCCCCCNC[C@@]1(O)[C@H](C)O[C@@H](OC2[C@H](C)[C@@H](O[C@@H]3O[C@H](C)C[C@H](N(C)C)[C@H]3O)[C@](C)(O)C[C@@H](C)CN[C@H](C)[C@@H](O)[C@](C)(O)[C@@H](CC)OC(=O)[C@@H]2C)C[C@@]1(C)OC

$$$$

     RDKit          2D

 63 65  0  0  0  0  0  0  0  0999 V2000
   15.0299   -9.0377    0.0000 C   0  0  0  0  0  0  0  0  0  0  0  0
   13.8398   -9.9509    0.0000 C   0  0  0  0  0  0  0  0  0  0  0  0
   12.4540   -9.3768    0.0000 C   0  0  0  0  0  0  0  0  0  0  0  0
   12.2582   -7.8897    0.0000 O   0  0  0  0  0  0  0  0  0  0  0  0
   11.2640  -10.2900    0.0000 O   0  0  0  0  0  0  0  0  0  0  0  0
    9.8782   -9.7159    0.0000 C   0  0  0  0  0  0  0  0  0  0  0  0
    9.6824   -8.2288    0.0000 C   0  0  0  0  0  0  0  0  0  0  0  0
   10.8724   -7.3156    0.0000 C   0  0  0  0  0  0  0  0  0  0  0  0
    8.2966   -7.6548    0.0000 O   0  0  0  0  0  0  0  0  0  0  0  0
    7.1065   -8.5679    0.0000 C   0  0  0  0  0  0  0  0  0  0  0  0
    5.7207   -7.9939    0.0000 O   0  0  0  0  0  0  0  0  0  0  0  0
    5.5249   -6.5067    0.0000 C   0  0  0  0  0  0  0  0  0  0  0  0
    4.1391   -5.9327    0.0000 C   0  0  0  0  0  0  0  0  0  0  0  0
    2.9491   -6.8458    0.0000 C   0  0  0  0  0  0  0  0  0  0  0  0
    3.9433   -4.4455    0.0000 O   0  0  0  0  0  0  0  0  0  0  0  0
    5.1333   -3.5324    0.0000 C   0  0  0  0  0  0  0  0  0  0  0  0
    4.9376   -2.0452    0.0000 O   0  0  0  0  0  0  0  0  0  0  0  0
    3.5517   -1.4712    0.0000 C   0  0  0  0  0  0  0  0  0  0  0  0
    3.8444    0.0000    0.0000 C   0  0  0  0  0  0  0  0  0  0  0  0
    5.3444    0.0000    0.0000 O   0  0  0  0  0  0  0  0  0  0  0  0
    6.0944   -1.2990    0.0000 C   0  0  0  0  0  0  0  0  0  0  0  0
    3.5517    1.4712    0.0000 C   0  0  0  0  0  0  0  0  0  0  0  0
    4.9376    2.0452    0.0000 O   0  0  0  0  0  0  0  0  0  0  0  0
    5.1333    3.5324    0.0000 C   0  0  0  0  0  0  0  0  0  0  0  0
    3.9433    4.4455    0.0000 O   0  0  0  0  0  0  0  0  0  0  0  0
    6.5192    4.1064    0.0000 C   0  0  0  0  0  0  0  0  0  0  0  0
    6.7150    5.5936    0.0000 C   0  0  0  0  0  0  0  0  0  0  0  0
    2.7184    2.7184    0.0000 C   0  0  0  0  0  0  0  0  0  0  0  0
    1.4712    3.5517    0.0000 C   0  0  0  0  0  0  0  0  0  0  0  0
    2.0452    4.9376    0.0000 O   0  0  0  0  0  0  0  0  0  0  0  0
    0.0000    3.8444    0.0000 O   0  0  0  0  0  0  0  0  0  0  0  0
   -1.4712    3.5517    0.0000 C   0  0  0  0  0  0  0  0  0  0  0  0
   -2.0452    4.9376    0.0000 C   0  0  0  0  0  0  0  0  0  0  0  0
   -2.7184    2.7184    0.0000 C   0  0  0  0  0  0  0  0  0  0  0  0
   -3.5517    1.4712    0.0000 C   0  0  0  0  0  0  0  0  0  0  0  0
   -3.8444    0.0000    0.0000 C   0  0  0  0  0  0  0  0  0  0  0  0
   -3.5517   -1.4712    0.0000 C   0  0  0  0  0  0  0  0  0  0  0  0
   -2.7184   -2.7184    0.0000 C   0  0  0  0  0  0  0  0  0  0  0  0
   -1.4712   -3.5517    0.0000 C   0  0  0  0  0  0  0  0  0  0  0  0
   -2.0452   -4.9376    0.0000 O   0  0  0  0  0  0  0  0  0  0  0  0
   -3.5324   -5.1333    0.0000 C   0  0  0  0  0  0  0  0  0  0  0  0
   -4.1064   -6.5192    0.0000 C   0  0  0  0  0  0  0  0  0  0  0  0
   -4.4455   -3.9433    0.0000 O   0  0  0  0  0  0  0  0  0  0  0  0
   -0.0000   -3.8444    0.0000 C   0  0  0  0  0  0  0  0  0  0  0  0
   -0.0000   -5.3444    0.0000 C   0  0  0  0  0  0  0  0  0  0  0  0
    1.4712   -3.5517    0.0000 C   0  0  0  0  0  0  0  0  0  0  0  0
    2.7184   -2.7184    0.0000 C   0  0  0  0  0  0  0  0  0  0  0  0
    3.7790   -3.7790    0.0000 C   0  0  0  0  0  0  0  0  0  0  0  0
    3.3908   -5.2279    0.0000 C   0  0  0  0  0  0  0  0  0  0  0  0
    4.1633   -6.5137    0.0000 O   0  0  0  0  0  0  0  0  0  0  0  0
    6.5192   -4.1064    0.0000 C   0  0  0  0  0  0  0  0  0  0  0  0
    7.7092   -3.1933    0.0000 O   0  0  0  0  0  0  0  0  0  0  0  0
    6.7150   -5.5936    0.0000 C   0  0  0  0  0  0  0  0  0  0  0  0
    8.1008   -6.1676    0.0000 N   0  0  0  0  0  0  0  0  0  0  0  0
    9.2908   -5.2544    0.0000 C   0  0  0  0  0  0  0  0  0  0  0  0
    8.6506   -7.5632    0.0000 C   0  0  0  0  0  0  0  0  0  0  0  0
    7.3023  -10.0551    0.0000 C   0  0  0  0  0  0  0  0  0  0  0  0
    8.6881  -10.6291    0.0000 C   0  0  0  0  0  0  0  0  0  0  0  0
    7.8822  -11.8942    0.0000 C   0  0  0  0  0  0  0  0  0  0  0  0
    9.7941  -11.6425    0.0000 O   0  0  0  0  0  0  0  0  0  0  0  0
    9.4694  -13.1069    0.0000 C   0  0  0  0  0  0  0  0  0  0  0  0
   10.5753  -14.1203    0.0000 C   0  0  0  0  0  0  0  0  0  0  0  0
    8.0388  -13.5580    0.0000 O   0  0  0  0  0  0  0  0  0  0  0  0
  1  2  1  0
  2  3  1  0
  3  4  2  0
  3  5  1  0
  6  5  1  6
  6  7  1  0
  7  8  1  1
  7  9  1  0
  9 10  1  0
 10 11  1  6
 12 11  1  6
 12 13  1  0
 13 14  1  1
 13 15  1  0
 15 16  1  0
 16 17  1  1
 18 17  1  1
 18 19  1  0
 19 20  1  6
 20 21  1  0
 19 22  1  0
 22 23  1  1
 23 24  1  0
 24 25  2  0
 24 26  1  0
 26 27  1  0
 22 28  1  0
 28 29  1  0
 29 30  2  0
 29 31  1  0
 31 32  1  0
 32 33  1  1
 32 34  1  0
 34 35  1  0
 35 36  2  0
 36 37  1  0
 37 38  2  0
 38 39  1  0
 39 40  1  1
 40 41  1  0
 41 42  1  0
 41 43  2  0
 39 44  1  0
 44 45  1  1
 44 46  1  0
 46 47  1  0
 47 48  1  1
 48 49  1  0
 49 50  2  0
 16 51  1  0
 51 52  1  6
 51 53  1  0
 53 54  1  1
 54 55  1  0
 54 56  1  0
 10 57  1  0
 57 58  1  0
 58 59  1  1
 58 60  1  0
 60 61  1  0
 61 62  1  0
 61 63  2  0
 58  6  1  0
 53 12  1  0
 47 18  1  0
M  END
>  <ChEMBL_IDs>  (583) 
CHEMBL1091024

>  <target_organism>  (583) 
nan

>  <target_molecule_pref_name>  (583) 
nan

>  <# Known Targets>  (583) 
nan

>  <Known Targets>  (583) 
nan

>  <smiles>  (583) 
CCC(=O)O[C@H]1[C@H](C)O[C@@H](O[C@@H]2[C@@H](C)O[C@@H](O[C@@H]3[C@@H](OC)[C@H](OC(=O)CC)CC(=O)O[C@H](C)C/C=C/C=C/[C@H](OC(C)=O)[C@H](C)C[C@@H]3CC=O)[C@H](O)[C@H]2N(C)C)C[C@@]1(C)OC(C)=O

$$$$

     RDKit          2D

 63 65  0  0  0  0  0  0  0  0999 V2000
    6.0944   -3.8971    0.0000 C   0  0  0  0  0  0  0  0  0  0  0  0
    5.3444   -2.5981    0.0000 C   0  0  0  0  0  0  0  0  0  0  0  0
    6.0944   -1.2990    0.0000 C   0  0  0  0  0  0  0  0  0  0  0  0
    7.5944   -1.2990    0.0000 O   0  0  0  0  0  0  0  0  0  0  0  0
    5.3444   -0.0000    0.0000 O   0  0  0  0  0  0  0  0  0  0  0  0
    3.8444    0.0000    0.0000 C   0  0  0  0  0  0  0  0  0  0  0  0
    3.5517   -1.4712    0.0000 C   0  0  0  0  0  0  0  0  0  0  0  0
    2.7184   -2.7184    0.0000 C   0  0  0  0  0  0  0  0  0  0  0  0
    3.7790   -3.7790    0.0000 O   0  0  0  0  0  0  0  0  0  0  0  0
    1.4712   -3.5517    0.0000 O   0  0  0  0  0  0  0  0  0  0  0  0
   -0.0000   -3.8444    0.0000 C   0  0  0  0  0  0  0  0  0  0  0  0
   -0.0000   -5.3444    0.0000 C   0  0  0  0  0  0  0  0  0  0  0  0
   -1.4712   -3.5517    0.0000 C   0  0  0  0  0  0  0  0  0  0  0  0
   -2.7184   -2.7184    0.0000 C   0  0  0  0  0  0  0  0  0  0  0  0
   -3.5517   -1.4712    0.0000 C   0  0  0  0  0  0  0  0  0  0  0  0
   -3.8444    0.0000    0.0000 C   0  0  0  0  0  0  0  0  0  0  0  0
   -3.5517    1.4712    0.0000 C   0  0  0  0  0  0  0  0  0  0  0  0
   -2.7184    2.7184    0.0000 C   0  0  0  0  0  0  0  0  0  0  0  0
   -3.7790    3.7790    0.0000 O   0  0  0  0  0  0  0  0  0  0  0  0
   -5.2279    3.3908    0.0000 C   0  0  0  0  0  0  0  0  0  0  0  0
   -6.2886    4.4515    0.0000 C   0  0  0  0  0  0  0  0  0  0  0  0
   -5.6162    1.9419    0.0000 O   0  0  0  0  0  0  0  0  0  0  0  0
   -1.4712    3.5517    0.0000 C   0  0  0  0  0  0  0  0  0  0  0  0
   -2.0452    4.9376    0.0000 C   0  0  0  0  0  0  0  0  0  0  0  0
    0.0000    3.8444    0.0000 C   0  0  0  0  0  0  0  0  0  0  0  0
    1.4712    3.5517    0.0000 C   0  0  0  0  0  0  0  0  0  0  0  0
    2.0452    4.9376    0.0000 C   0  0  0  0  0  0  0  0  0  0  0  0
    3.5324    5.1333    0.0000 C   0  0  0  0  0  0  0  0  0  0  0  0
    4.1064    6.5192    0.0000 O   0  0  0  0  0  0  0  0  0  0  0  0
    2.7184    2.7184    0.0000 C   0  0  0  0  0  0  0  0  0  0  0  0
    3.7790    3.7790    0.0000 O   0  0  0  0  0  0  0  0  0  0  0  0
    5.2279    3.3908    0.0000 C   0  0  0  0  0  0  0  0  0  0  0  0
    5.6162    1.9419    0.0000 O   0  0  0  0  0  0  0  0  0  0  0  0
    7.0650    1.5537    0.0000 C   0  0  0  0  0  0  0  0  0  0  0  0
    7.4533    0.1048    0.0000 C   0  0  0  0  0  0  0  0  0  0  0  0
    8.1257    2.6144    0.0000 C   0  0  0  0  0  0  0  0  0  0  0  0
    9.5746    2.2261    0.0000 O   0  0  0  0  0  0  0  0  0  0  0  0
    9.9628    0.7772    0.0000 C   0  0  0  0  0  0  0  0  0  0  0  0
   11.4117    0.3890    0.0000 C   0  0  0  0  0  0  0  0  0  0  0  0
   11.7999   -1.0599    0.0000 C   0  0  0  0  0  0  0  0  0  0  0  0
   12.6603   -2.2886    0.0000 C   0  0  0  0  0  0  0  0  0  0  0  0
   13.1594   -0.4260    0.0000 O   0  0  0  0  0  0  0  0  0  0  0  0
   13.2901    1.0683    0.0000 C   0  0  0  0  0  0  0  0  0  0  0  0
   14.6496    1.7023    0.0000 C   0  0  0  0  0  0  0  0  0  0  0  0
   12.0614    1.9287    0.0000 O   0  0  0  0  0  0  0  0  0  0  0  0
   10.7393   -2.1205    0.0000 C   0  0  0  0  0  0  0  0  0  0  0  0
   11.1275   -3.5694    0.0000 O   0  0  0  0  0  0  0  0  0  0  0  0
   10.0669   -4.6301    0.0000 C   0  0  0  0  0  0  0  0  0  0  0  0
    8.6180   -4.2419    0.0000 O   0  0  0  0  0  0  0  0  0  0  0  0
   10.4551   -6.0790    0.0000 C   0  0  0  0  0  0  0  0  0  0  0  0
    9.3944   -7.1396    0.0000 C   0  0  0  0  0  0  0  0  0  0  0  0
    9.2904   -1.7323    0.0000 C   0  0  0  0  0  0  0  0  0  0  0  0
    8.2297   -2.7930    0.0000 C   0  0  0  0  0  0  0  0  0  0  0  0
    8.9022   -0.2834    0.0000 O   0  0  0  0  0  0  0  0  0  0  0  0
    7.7375    4.0632    0.0000 C   0  0  0  0  0  0  0  0  0  0  0  0
    8.7981    5.1239    0.0000 N   0  0  0  0  0  0  0  0  0  0  0  0
    8.4099    6.5728    0.0000 C   0  0  0  0  0  0  0  0  0  0  0  0
   10.2470    4.7357    0.0000 C   0  0  0  0  0  0  0  0  0  0  0  0
    6.2886    4.4515    0.0000 C   0  0  0  0  0  0  0  0  0  0  0  0
    5.9004    5.9004    0.0000 O   0  0  0  0  0  0  0  0  0  0  0  0
    3.5517    1.4712    0.0000 C   0  0  0  0  0  0  0  0  0  0  0  0
    4.9376    2.0452    0.0000 O   0  0  0  0  0  0  0  0  0  0  0  0
    6.1276    1.1321    0.0000 C   0  0  0  0  0  0  0  0  0  0  0  0
  1  2  1  0
  2  3  1  0
  3  4  2  0
  3  5  1  0
  5  6  1  0
  6  7  1  0
  7  8  1  0
  8  9  2  0
  8 10  1  0
 10 11  1  0
 11 12  1  0
 11 13  1  0
 13 14  1  0
 14 15  2  0
 15 16  1  0
 16 17  2  0
 17 18  1  0
 18 19  1  0
 19 20  1  0
 20 21  1  0
 20 22  2  0
 18 23  1  0
 23 24  1  0
 23 25  1  0
 25 26  1  0
 26 27  1  0
 27 28  1  0
 28 29  2  0
 26 30  1  0
 30 31  1  0
 31 32  1  0
 32 33  1  0
 33 34  1  0
 34 35  1  0
 34 36  1  0
 36 37  1  0
 37 38  1  0
 38 39  1  0
 39 40  1  0
 40 41  1  0
 40 42  1  0
 42 43  1  0
 43 44  1  0
 43 45  2  0
 40 46  1  0
 46 47  1  0
 47 48  1  0
 48 49  2  0
 48 50  1  0
 50 51  1  0
 46 52  1  0
 52 53  1  0
 52 54  1  0
 36 55  1  0
 55 56  1  0
 56 57  1  0
 56 58  1  0
 55 59  1  0
 59 60  1  0
 30 61  1  0
 61 62  1  0
 62 63  1  0
 61  6  1  0
 59 32  1  0
 54 38  1  0
M  END
>  <ChEMBL_IDs>  (584) 
nan

>  <target_organism>  (584) 
nan

>  <target_molecule_pref_name>  (584) 
nan

>  <# Known Targets>  (584) 
nan

>  <Known Targets>  (584) 
nan

>  <smiles>  (584) 
CCC(=O)OC1CC(=O)OC(C)C/C=C\C=C/C(OC(C)=O)C(C)CC(CC=O)C(OC2OC(C)C(OC3CC(C)(OC(C)=O)C(OC(=O)CC)C(C)O3)C(N(C)C)C2O)C1OC

$$$$

     RDKit          2D

 64 66  0  0  0  0  0  0  0  0999 V2000
    6.0944   -3.8971    0.0000 C   0  0  0  0  0  0  0  0  0  0  0  0
    5.3444   -2.5981    0.0000 C   0  0  0  0  0  0  0  0  0  0  0  0
    6.0944   -1.2990    0.0000 C   0  0  0  0  0  0  0  0  0  0  0  0
    7.5944   -1.2990    0.0000 O   0  0  0  0  0  0  0  0  0  0  0  0
    5.3444   -0.0000    0.0000 O   0  0  0  0  0  0  0  0  0  0  0  0
    3.8444    0.0000    0.0000 C   0  0  0  0  0  0  0  0  0  0  0  0
    3.5517   -1.4712    0.0000 C   0  0  0  0  0  0  0  0  0  0  0  0
    2.7184   -2.7184    0.0000 C   0  0  0  0  0  0  0  0  0  0  0  0
    3.7790   -3.7790    0.0000 O   0  0  0  0  0  0  0  0  0  0  0  0
    1.4712   -3.5517    0.0000 O   0  0  0  0  0  0  0  0  0  0  0  0
   -0.0000   -3.8444    0.0000 C   0  0  0  0  0  0  0  0  0  0  0  0
   -0.0000   -5.3444    0.0000 C   0  0  0  0  0  0  0  0  0  0  0  0
   -1.4712   -3.5517    0.0000 C   0  0  0  0  0  0  0  0  0  0  0  0
   -2.7184   -2.7184    0.0000 C   0  0  0  0  0  0  0  0  0  0  0  0
   -3.5517   -1.4712    0.0000 C   0  0  0  0  0  0  0  0  0  0  0  0
   -3.8444    0.0000    0.0000 C   0  0  0  0  0  0  0  0  0  0  0  0
   -3.5517    1.4712    0.0000 C   0  0  0  0  0  0  0  0  0  0  0  0
   -2.7184    2.7184    0.0000 C   0  0  0  0  0  0  0  0  0  0  0  0
   -3.7790    3.7790    0.0000 O   0  0  0  0  0  0  0  0  0  0  0  0
   -5.2279    3.3908    0.0000 C   0  0  0  0  0  0  0  0  0  0  0  0
   -6.2886    4.4515    0.0000 C   0  0  0  0  0  0  0  0  0  0  0  0
   -5.6162    1.9419    0.0000 O   0  0  0  0  0  0  0  0  0  0  0  0
   -1.4712    3.5517    0.0000 C   0  0  0  0  0  0  0  0  0  0  0  0
   -2.0452    4.9376    0.0000 C   0  0  0  0  0  0  0  0  0  0  0  0
    0.0000    3.8444    0.0000 C   0  0  0  0  0  0  0  0  0  0  0  0
    1.4712    3.5517    0.0000 C   0  0  0  0  0  0  0  0  0  0  0  0
    2.0452    4.9376    0.0000 C   0  0  0  0  0  0  0  0  0  0  0  0
    3.5324    5.1333    0.0000 C   0  0  0  0  0  0  0  0  0  0  0  0
    4.1064    6.5192    0.0000 O   0  0  0  0  0  0  0  0  0  0  0  0
    2.7184    2.7184    0.0000 C   0  0  0  0  0  0  0  0  0  0  0  0
    3.7790    3.7790    0.0000 O   0  0  0  0  0  0  0  0  0  0  0  0
    5.2279    3.3908    0.0000 C   0  0  0  0  0  0  0  0  0  0  0  0
    5.6162    1.9419    0.0000 O   0  0  0  0  0  0  0  0  0  0  0  0
    7.0650    1.5537    0.0000 C   0  0  0  0  0  0  0  0  0  0  0  0
    7.4533    0.1048    0.0000 C   0  0  0  0  0  0  0  0  0  0  0  0
    8.1257    2.6144    0.0000 C   0  0  0  0  0  0  0  0  0  0  0  0
    9.5746    2.2261    0.0000 O   0  0  0  0  0  0  0  0  0  0  0  0
    9.9628    0.7772    0.0000 C   0  0  0  0  0  0  0  0  0  0  0  0
    8.9022   -0.2834    0.0000 O   0  0  0  0  0  0  0  0  0  0  0  0
    9.2904   -1.7323    0.0000 C   0  0  0  0  0  0  0  0  0  0  0  0
    8.2297   -2.7930    0.0000 C   0  0  0  0  0  0  0  0  0  0  0  0
   10.7393   -2.1205    0.0000 C   0  0  0  0  0  0  0  0  0  0  0  0
   11.1275   -3.5694    0.0000 O   0  0  0  0  0  0  0  0  0  0  0  0
   12.5764   -3.9577    0.0000 C   0  0  0  0  0  0  0  0  0  0  0  0
   13.6371   -2.8970    0.0000 O   0  0  0  0  0  0  0  0  0  0  0  0
   12.9646   -5.4065    0.0000 C   0  0  0  0  0  0  0  0  0  0  0  0
   14.4135   -5.7948    0.0000 C   0  0  0  0  0  0  0  0  0  0  0  0
   11.7999   -1.0599    0.0000 C   0  0  0  0  0  0  0  0  0  0  0  0
   13.1594   -0.4260    0.0000 C   0  0  0  0  0  0  0  0  0  0  0  0
   12.6603   -2.2886    0.0000 O   0  0  0  0  0  0  0  0  0  0  0  0
   14.1546   -2.1579    0.0000 C   0  0  0  0  0  0  0  0  0  0  0  0
   15.0150   -3.3866    0.0000 C   0  0  0  0  0  0  0  0  0  0  0  0
   14.7885   -0.7984    0.0000 O   0  0  0  0  0  0  0  0  0  0  0  0
   11.4117    0.3890    0.0000 C   0  0  0  0  0  0  0  0  0  0  0  0
   12.4724    1.4497    0.0000 O   0  0  0  0  0  0  0  0  0  0  0  0
    7.7375    4.0632    0.0000 C   0  0  0  0  0  0  0  0  0  0  0  0
    8.7981    5.1239    0.0000 N   0  0  0  0  0  0  0  0  0  0  0  0
    8.4099    6.5728    0.0000 C   0  0  0  0  0  0  0  0  0  0  0  0
   10.2470    4.7357    0.0000 C   0  0  0  0  0  0  0  0  0  0  0  0
    6.2886    4.4515    0.0000 C   0  0  0  0  0  0  0  0  0  0  0  0
    5.9004    5.9004    0.0000 O   0  0  0  0  0  0  0  0  0  0  0  0
    3.5517    1.4712    0.0000 C   0  0  0  0  0  0  0  0  0  0  0  0
    4.9376    2.0452    0.0000 O   0  0  0  0  0  0  0  0  0  0  0  0
    6.1276    1.1321    0.0000 C   0  0  0  0  0  0  0  0  0  0  0  0
  1  2  1  0
  2  3  1  0
  3  4  2  0
  3  5  1  0
  5  6  1  0
  6  7  1  0
  7  8  1  0
  8  9  2  0
  8 10  1  0
 10 11  1  0
 11 12  1  0
 11 13  1  0
 13 14  1  0
 14 15  2  0
 15 16  1  0
 16 17  2  0
 17 18  1  0
 18 19  1  0
 19 20  1  0
 20 21  1  0
 20 22  2  0
 18 23  1  0
 23 24  1  0
 23 25  1  0
 25 26  1  0
 26 27  1  0
 27 28  1  0
 28 29  2  0
 26 30  1  0
 30 31  1  0
 31 32  1  0
 32 33  1  0
 33 34  1  0
 34 35  1  0
 34 36  1  0
 36 37  1  0
 37 38  1  0
 38 39  1  0
 39 40  1  0
 40 41  1  0
 40 42  1  0
 42 43  1  0
 43 44  1  0
 44 45  2  0
 44 46  1  0
 46 47  1  0
 42 48  1  0
 48 49  1  0
 48 50  1  0
 50 51  1  0
 51 52  1  0
 51 53  2  0
 48 54  1  0
 54 55  1  0
 36 56  1  0
 56 57  1  0
 57 58  1  0
 57 59  1  0
 56 60  1  0
 60 61  1  0
 30 62  1  0
 62 63  1  0
 63 64  1  0
 62  6  1  0
 60 32  1  0
 54 38  1  0
M  END
>  <ChEMBL_IDs>  (585) 
nan

>  <target_organism>  (585) 
nan

>  <target_molecule_pref_name>  (585) 
nan

>  <# Known Targets>  (585) 
nan

>  <Known Targets>  (585) 
nan

>  <smiles>  (585) 
CCC(=O)OC1CC(=O)OC(C)C/C=C\C=C/C(OC(C)=O)C(C)CC(CC=O)C(OC2OC(C)C(OC3OC(C)C(OC(=O)CC)C(C)(OC(C)=O)C3O)C(N(C)C)C2O)C1OC

$$$$

     RDKit          2D

 64 66  0  0  0  0  0  0  0  0999 V2000
    6.0944   -3.8971    0.0000 C   0  0  0  0  0  0  0  0  0  0  0  0
    5.3444   -2.5981    0.0000 C   0  0  0  0  0  0  0  0  0  0  0  0
    6.0944   -1.2990    0.0000 C   0  0  0  0  0  0  0  0  0  0  0  0
    7.5944   -1.2990    0.0000 O   0  0  0  0  0  0  0  0  0  0  0  0
    5.3444   -0.0000    0.0000 O   0  0  0  0  0  0  0  0  0  0  0  0
    3.8444    0.0000    0.0000 C   0  0  0  0  0  0  0  0  0  0  0  0
    3.5517   -1.4712    0.0000 C   0  0  0  0  0  0  0  0  0  0  0  0
    2.7184   -2.7184    0.0000 C   0  0  0  0  0  0  0  0  0  0  0  0
    3.7790   -3.7790    0.0000 O   0  0  0  0  0  0  0  0  0  0  0  0
    1.4712   -3.5517    0.0000 O   0  0  0  0  0  0  0  0  0  0  0  0
   -0.0000   -3.8444    0.0000 C   0  0  0  0  0  0  0  0  0  0  0  0
   -0.0000   -5.3444    0.0000 C   0  0  0  0  0  0  0  0  0  0  0  0
   -1.4712   -3.5517    0.0000 C   0  0  0  0  0  0  0  0  0  0  0  0
   -2.7184   -2.7184    0.0000 C   0  0  0  0  0  0  0  0  0  0  0  0
   -3.5517   -1.4712    0.0000 C   0  0  0  0  0  0  0  0  0  0  0  0
   -3.8444    0.0000    0.0000 C   0  0  0  0  0  0  0  0  0  0  0  0
   -3.5517    1.4712    0.0000 C   0  0  0  0  0  0  0  0  0  0  0  0
   -2.7184    2.7184    0.0000 C   0  0  0  0  0  0  0  0  0  0  0  0
   -3.7790    3.7790    0.0000 O   0  0  0  0  0  0  0  0  0  0  0  0
   -5.2279    3.3908    0.0000 C   0  0  0  0  0  0  0  0  0  0  0  0
   -6.2886    4.4515    0.0000 C   0  0  0  0  0  0  0  0  0  0  0  0
   -5.6162    1.9419    0.0000 O   0  0  0  0  0  0  0  0  0  0  0  0
   -1.4712    3.5517    0.0000 C   0  0  0  0  0  0  0  0  0  0  0  0
   -2.0452    4.9376    0.0000 C   0  0  0  0  0  0  0  0  0  0  0  0
    0.0000    3.8444    0.0000 C   0  0  0  0  0  0  0  0  0  0  0  0
    1.4712    3.5517    0.0000 C   0  0  0  0  0  0  0  0  0  0  0  0
    2.0452    4.9376    0.0000 C   0  0  0  0  0  0  0  0  0  0  0  0
    3.5324    5.1333    0.0000 C   0  0  0  0  0  0  0  0  0  0  0  0
    4.1064    6.5192    0.0000 O   0  0  0  0  0  0  0  0  0  0  0  0
    2.7184    2.7184    0.0000 C   0  0  0  0  0  0  0  0  0  0  0  0
    3.7790    3.7790    0.0000 O   0  0  0  0  0  0  0  0  0  0  0  0
    5.2279    3.3908    0.0000 C   0  0  0  0  0  0  0  0  0  0  0  0
    5.6162    1.9419    0.0000 O   0  0  0  0  0  0  0  0  0  0  0  0
    7.0650    1.5537    0.0000 C   0  0  0  0  0  0  0  0  0  0  0  0
    7.4533    0.1048    0.0000 C   0  0  0  0  0  0  0  0  0  0  0  0
    8.1257    2.6144    0.0000 C   0  0  0  0  0  0  0  0  0  0  0  0
    9.5746    2.2261    0.0000 O   0  0  0  0  0  0  0  0  0  0  0  0
    9.9628    0.7772    0.0000 C   0  0  0  0  0  0  0  0  0  0  0  0
    8.9022   -0.2834    0.0000 O   0  0  0  0  0  0  0  0  0  0  0  0
    9.2904   -1.7323    0.0000 C   0  0  0  0  0  0  0  0  0  0  0  0
    8.2297   -2.7930    0.0000 C   0  0  0  0  0  0  0  0  0  0  0  0
   10.7393   -2.1205    0.0000 C   0  0  0  0  0  0  0  0  0  0  0  0
   11.1275   -3.5694    0.0000 O   0  0  0  0  0  0  0  0  0  0  0  0
   12.5764   -3.9577    0.0000 C   0  0  0  0  0  0  0  0  0  0  0  0
   13.6371   -2.8970    0.0000 O   0  0  0  0  0  0  0  0  0  0  0  0
   12.9646   -5.4065    0.0000 C   0  0  0  0  0  0  0  0  0  0  0  0
   14.4135   -5.7948    0.0000 C   0  0  0  0  0  0  0  0  0  0  0  0
   11.7999   -1.0599    0.0000 C   0  0  0  0  0  0  0  0  0  0  0  0
   13.1594   -0.4260    0.0000 C   0  0  0  0  0  0  0  0  0  0  0  0
   12.6603   -2.2886    0.0000 O   0  0  0  0  0  0  0  0  0  0  0  0
   14.1546   -2.1579    0.0000 C   0  0  0  0  0  0  0  0  0  0  0  0
   15.0150   -3.3866    0.0000 C   0  0  0  0  0  0  0  0  0  0  0  0
   14.7885   -0.7984    0.0000 O   0  0  0  0  0  0  0  0  0  0  0  0
   11.4117    0.3890    0.0000 C   0  0  0  0  0  0  0  0  0  0  0  0
   12.4724    1.4497    0.0000 O   0  0  0  0  0  0  0  0  0  0  0  0
    7.7375    4.0632    0.0000 C   0  0  0  0  0  0  0  0  0  0  0  0
    8.7981    5.1239    0.0000 N   0  0  0  0  0  0  0  0  0  0  0  0
    8.4099    6.5728    0.0000 C   0  0  0  0  0  0  0  0  0  0  0  0
   10.2470    4.7357    0.0000 C   0  0  0  0  0  0  0  0  0  0  0  0
    6.2886    4.4515    0.0000 C   0  0  0  0  0  0  0  0  0  0  0  0
    5.9004    5.9004    0.0000 O   0  0  0  0  0  0  0  0  0  0  0  0
    3.5517    1.4712    0.0000 C   0  0  0  0  0  0  0  0  0  0  0  0
    4.9376    2.0452    0.0000 O   0  0  0  0  0  0  0  0  0  0  0  0
    6.1276    1.1321    0.0000 C   0  0  0  0  0  0  0  0  0  0  0  0
  1  2  1  0
  2  3  1  0
  3  4  2  0
  3  5  1  0
  5  6  1  0
  6  7  1  0
  7  8  1  0
  8  9  2  0
  8 10  1  0
 10 11  1  0
 11 12  1  0
 11 13  1  0
 13 14  1  0
 14 15  2  0
 15 16  1  0
 16 17  2  0
 17 18  1  0
 18 19  1  0
 19 20  1  0
 20 21  1  0
 20 22  2  0
 18 23  1  0
 23 24  1  0
 23 25  1  0
 25 26  1  0
 26 27  1  0
 27 28  1  0
 28 29  2  0
 26 30  1  0
 30 31  1  0
 31 32  1  0
 32 33  1  0
 33 34  1  0
 34 35  1  0
 34 36  1  0
 36 37  1  0
 37 38  1  0
 38 39  1  0
 39 40  1  0
 40 41  1  0
 40 42  1  0
 42 43  1  0
 43 44  1  0
 44 45  2  0
 44 46  1  0
 46 47  1  0
 42 48  1  0
 48 49  1  0
 48 50  1  0
 50 51  1  0
 51 52  1  0
 51 53  2  0
 48 54  1  0
 54 55  1  0
 36 56  1  0
 56 57  1  0
 57 58  1  0
 57 59  1  0
 56 60  1  0
 60 61  1  0
 30 62  1  0
 62 63  1  0
 63 64  1  0
 62  6  1  0
 60 32  1  0
 54 38  1  0
M  END
>  <ChEMBL_IDs>  (586) 
nan

>  <target_organism>  (586) 
nan

>  <target_molecule_pref_name>  (586) 
nan

>  <# Known Targets>  (586) 
nan

>  <Known Targets>  (586) 
nan

>  <smiles>  (586) 
CCC(=O)OC1CC(=O)OC(C)C/C=C\C=C/C(OC(C)=O)C(C)CC(CC=O)C(OC2OC(C)C(OC3OC(C)C(OC(=O)CC)C(C)(OC(C)=O)C3O)C(N(C)C)C2O)C1OC

$$$$

     RDKit          2D

 62 64  0  0  0  0  0  0  0  0999 V2000
   17.6057   -8.6986    0.0000 C   0  0  0  0  0  0  0  0  0  0  0  0
   16.4157   -9.6117    0.0000 C   0  0  0  0  0  0  0  0  0  0  0  0
   15.0299   -9.0377    0.0000 C   0  0  0  0  0  0  0  0  0  0  0  0
   13.8398   -9.9509    0.0000 C   0  0  0  0  0  0  0  0  0  0  0  0
   12.4540   -9.3768    0.0000 C   0  0  0  0  0  0  0  0  0  0  0  0
   12.2582   -7.8897    0.0000 O   0  0  0  0  0  0  0  0  0  0  0  0
   11.2640  -10.2900    0.0000 O   0  0  0  0  0  0  0  0  0  0  0  0
    9.8782   -9.7159    0.0000 C   0  0  0  0  0  0  0  0  0  0  0  0
    9.6824   -8.2288    0.0000 C   0  0  0  0  0  0  0  0  0  0  0  0
   10.8724   -7.3156    0.0000 C   0  0  0  0  0  0  0  0  0  0  0  0
    8.2966   -7.6548    0.0000 O   0  0  0  0  0  0  0  0  0  0  0  0
    7.1065   -8.5679    0.0000 C   0  0  0  0  0  0  0  0  0  0  0  0
    5.7207   -7.9939    0.0000 O   0  0  0  0  0  0  0  0  0  0  0  0
    5.5249   -6.5067    0.0000 C   0  0  0  0  0  0  0  0  0  0  0  0
    4.1391   -5.9327    0.0000 C   0  0  0  0  0  0  0  0  0  0  0  0
    2.9491   -6.8458    0.0000 C   0  0  0  0  0  0  0  0  0  0  0  0
    3.9433   -4.4455    0.0000 O   0  0  0  0  0  0  0  0  0  0  0  0
    5.1333   -3.5324    0.0000 C   0  0  0  0  0  0  0  0  0  0  0  0
    4.9376   -2.0452    0.0000 O   0  0  0  0  0  0  0  0  0  0  0  0
    3.5517   -1.4712    0.0000 C   0  0  0  0  0  0  0  0  0  0  0  0
    3.8444    0.0000    0.0000 C   0  0  0  0  0  0  0  0  0  0  0  0
    5.3444    0.0000    0.0000 C   0  0  0  0  0  0  0  0  0  0  0  0
    6.0944   -1.2990    0.0000 C   0  0  0  0  0  0  0  0  0  0  0  0
    7.5944   -1.2990    0.0000 O   0  0  0  0  0  0  0  0  0  0  0  0
    3.5517    1.4712    0.0000 C   0  0  0  0  0  0  0  0  0  0  0  0
    2.7184    2.7184    0.0000 C   0  0  0  0  0  0  0  0  0  0  0  0
    3.7790    3.7790    0.0000 C   0  0  0  0  0  0  0  0  0  0  0  0
    1.4712    3.5517    0.0000 C   0  0  0  0  0  0  0  0  0  0  0  0
    2.0452    4.9376    0.0000 O   0  0  0  0  0  0  0  0  0  0  0  0
    1.1321    6.1276    0.0000 C   0  0  0  0  0  0  0  0  0  0  0  0
   -0.3551    5.9318    0.0000 O   0  0  0  0  0  0  0  0  0  0  0  0
    1.7061    7.5134    0.0000 C   0  0  0  0  0  0  0  0  0  0  0  0
    0.7929    8.7034    0.0000 C   0  0  0  0  0  0  0  0  0  0  0  0
    0.0000    3.8444    0.0000 C   0  0  0  0  0  0  0  0  0  0  0  0
   -1.4712    3.5517    0.0000 C   0  0  0  0  0  0  0  0  0  0  0  0
   -2.7184    2.7184    0.0000 C   0  0  0  0  0  0  0  0  0  0  0  0
   -3.5517    1.4712    0.0000 C   0  0  0  0  0  0  0  0  0  0  0  0
   -3.8444    0.0000    0.0000 C   0  0  0  0  0  0  0  0  0  0  0  0
   -3.5517   -1.4712    0.0000 C   0  0  0  0  0  0  0  0  0  0  0  0
   -4.9376   -2.0452    0.0000 C   0  0  0  0  0  0  0  0  0  0  0  0
   -2.7184   -2.7184    0.0000 O   0  0  0  0  0  0  0  0  0  0  0  0
   -1.4712   -3.5517    0.0000 C   0  0  0  0  0  0  0  0  0  0  0  0
   -2.0452   -4.9376    0.0000 O   0  0  0  0  0  0  0  0  0  0  0  0
   -0.0000   -3.8444    0.0000 C   0  0  0  0  0  0  0  0  0  0  0  0
    1.4712   -3.5517    0.0000 C   0  0  0  0  0  0  0  0  0  0  0  0
    2.0452   -4.9376    0.0000 O   0  0  0  0  0  0  0  0  0  0  0  0
    1.1321   -6.1276    0.0000 C   0  0  0  0  0  0  0  0  0  0  0  0
    1.7061   -7.5134    0.0000 C   0  0  0  0  0  0  0  0  0  0  0  0
   -0.3551   -5.9318    0.0000 O   0  0  0  0  0  0  0  0  0  0  0  0
    2.7184   -2.7184    0.0000 C   0  0  0  0  0  0  0  0  0  0  0  0
    3.7790   -3.7790    0.0000 O   0  0  0  0  0  0  0  0  0  0  0  0
    3.3908   -5.2279    0.0000 C   0  0  0  0  0  0  0  0  0  0  0  0
    6.5192   -4.1064    0.0000 C   0  0  0  0  0  0  0  0  0  0  0  0
    7.7092   -3.1933    0.0000 O   0  0  0  0  0  0  0  0  0  0  0  0
    6.7150   -5.5936    0.0000 C   0  0  0  0  0  0  0  0  0  0  0  0
    8.1008   -6.1676    0.0000 N   0  0  0  0  0  0  0  0  0  0  0  0
    8.6506   -7.5632    0.0000 C   0  0  0  0  0  0  0  0  0  0  0  0
    9.2908   -5.2544    0.0000 C   0  0  0  0  0  0  0  0  0  0  0  0
    7.3023  -10.0551    0.0000 C   0  0  0  0  0  0  0  0  0  0  0  0
    8.6881  -10.6291    0.0000 C   0  0  0  0  0  0  0  0  0  0  0  0
    7.8822  -11.8942    0.0000 C   0  0  0  0  0  0  0  0  0  0  0  0
    9.7941  -11.6425    0.0000 O   0  0  0  0  0  0  0  0  0  0  0  0
  1  2  1  0
  2  3  1  0
  3  4  1  0
  4  5  1  0
  5  6  2  0
  5  7  1  0
  7  8  1  0
  8  9  1  0
  9 10  1  0
  9 11  1  0
 11 12  1  0
 12 13  1  0
 13 14  1  0
 14 15  1  0
 15 16  1  0
 15 17  1  0
 17 18  1  0
 18 19  1  0
 19 20  1  0
 20 21  1  0
 21 22  1  0
 22 23  1  0
 23 24  2  0
 21 25  1  0
 25 26  1  0
 26 27  1  0
 26 28  1  0
 28 29  1  0
 29 30  1  0
 30 31  2  0
 30 32  1  0
 32 33  1  0
 28 34  1  0
 34 35  2  0
 35 36  1  0
 36 37  2  0
 37 38  1  0
 38 39  1  0
 39 40  1  0
 39 41  1  0
 41 42  1  0
 42 43  2  0
 42 44  1  0
 44 45  1  0
 45 46  1  0
 46 47  1  0
 47 48  1  0
 47 49  2  0
 45 50  1  0
 50 51  1  0
 51 52  1  0
 18 53  1  0
 53 54  1  0
 53 55  1  0
 55 56  1  0
 56 57  1  0
 56 58  1  0
 12 59  1  0
 59 60  1  0
 60 61  1  0
 60 62  1  0
 60  8  1  0
 55 14  1  0
 50 20  1  0
M  END
>  <ChEMBL_IDs>  (587) 
nan

>  <target_organism>  (587) 
nan

>  <target_molecule_pref_name>  (587) 
nan

>  <# Known Targets>  (587) 
nan

>  <Known Targets>  (587) 
nan

>  <smiles>  (587) 
CCCCC(=O)OC1C(C)OC(OC2C(C)OC(OC3C(CC=O)CC(C)C(OC(=O)CC)/C=C\C=C/CC(C)OC(=O)CC(OC(C)=O)C3OC)C(O)C2N(C)C)CC1(C)O

$$$$

     RDKit          2D

 64 66  0  0  0  0  0  0  0  0999 V2000
    6.0944   -3.8971    0.0000 C   0  0  0  0  0  0  0  0  0  0  0  0
    5.3444   -2.5981    0.0000 C   0  0  0  0  0  0  0  0  0  0  0  0
    6.0944   -1.2990    0.0000 C   0  0  0  0  0  0  0  0  0  0  0  0
    7.5944   -1.2990    0.0000 O   0  0  0  0  0  0  0  0  0  0  0  0
    5.3444   -0.0000    0.0000 O   0  0  0  0  0  0  0  0  0  0  0  0
    3.8444    0.0000    0.0000 C   0  0  0  0  0  0  0  0  0  0  0  0
    3.5517   -1.4712    0.0000 C   0  0  0  0  0  0  0  0  0  0  0  0
    2.7184   -2.7184    0.0000 C   0  0  0  0  0  0  0  0  0  0  0  0
    3.7790   -3.7790    0.0000 O   0  0  0  0  0  0  0  0  0  0  0  0
    1.4712   -3.5517    0.0000 O   0  0  0  0  0  0  0  0  0  0  0  0
   -0.0000   -3.8444    0.0000 C   0  0  0  0  0  0  0  0  0  0  0  0
   -0.0000   -5.3444    0.0000 C   0  0  0  0  0  0  0  0  0  0  0  0
   -1.4712   -3.5517    0.0000 C   0  0  0  0  0  0  0  0  0  0  0  0
   -2.7184   -2.7184    0.0000 C   0  0  0  0  0  0  0  0  0  0  0  0
   -3.7790   -3.7790    0.0000 O   0  0  0  0  0  0  0  0  0  0  0  0
   -3.5517   -1.4712    0.0000 C   0  0  0  0  0  0  0  0  0  0  0  0
   -4.9376   -2.0452    0.0000 N   0  0  0  0  0  0  0  0  0  0  0  0
   -6.1276   -1.1321    0.0000 C   0  0  0  0  0  0  0  0  0  0  0  0
   -5.1333   -3.5324    0.0000 C   0  0  0  0  0  0  0  0  0  0  0  0
   -3.8444    0.0000    0.0000 C   0  0  0  0  0  0  0  0  0  0  0  0
   -3.5517    1.4712    0.0000 C   0  0  0  0  0  0  0  0  0  0  0  0
   -2.7184    2.7184    0.0000 C   0  0  0  0  0  0  0  0  0  0  0  0
   -3.7790    3.7790    0.0000 O   0  0  0  0  0  0  0  0  0  0  0  0
   -5.2279    3.3908    0.0000 C   0  0  0  0  0  0  0  0  0  0  0  0
   -6.2886    4.4515    0.0000 C   0  0  0  0  0  0  0  0  0  0  0  0
   -5.6162    1.9419    0.0000 O   0  0  0  0  0  0  0  0  0  0  0  0
   -1.4712    3.5517    0.0000 C   0  0  0  0  0  0  0  0  0  0  0  0
   -2.0452    4.9376    0.0000 C   0  0  0  0  0  0  0  0  0  0  0  0
    0.0000    3.8444    0.0000 C   0  0  0  0  0  0  0  0  0  0  0  0
    1.4712    3.5517    0.0000 C   0  0  0  0  0  0  0  0  0  0  0  0
    2.0452    4.9376    0.0000 C   0  0  0  0  0  0  0  0  0  0  0  0
    3.5324    5.1333    0.0000 C   0  0  0  0  0  0  0  0  0  0  0  0
    4.1064    6.5192    0.0000 O   0  0  0  0  0  0  0  0  0  0  0  0
    2.7184    2.7184    0.0000 C   0  0  0  0  0  0  0  0  0  0  0  0
    3.7790    3.7790    0.0000 O   0  0  0  0  0  0  0  0  0  0  0  0
    5.2279    3.3908    0.0000 C   0  0  0  0  0  0  0  0  0  0  0  0
    5.6162    1.9419    0.0000 O   0  0  0  0  0  0  0  0  0  0  0  0
    7.0650    1.5537    0.0000 C   0  0  0  0  0  0  0  0  0  0  0  0
    7.4533    0.1048    0.0000 C   0  0  0  0  0  0  0  0  0  0  0  0
    8.1257    2.6144    0.0000 C   0  0  0  0  0  0  0  0  0  0  0  0
    9.5746    2.2261    0.0000 O   0  0  0  0  0  0  0  0  0  0  0  0
    9.9628    0.7772    0.0000 C   0  0  0  0  0  0  0  0  0  0  0  0
   11.4117    0.3890    0.0000 C   0  0  0  0  0  0  0  0  0  0  0  0
   11.7999   -1.0599    0.0000 C   0  0  0  0  0  0  0  0  0  0  0  0
   12.6603   -2.2886    0.0000 C   0  0  0  0  0  0  0  0  0  0  0  0
   13.1594   -0.4260    0.0000 O   0  0  0  0  0  0  0  0  0  0  0  0
   10.7393   -2.1205    0.0000 C   0  0  0  0  0  0  0  0  0  0  0  0
   11.1275   -3.5694    0.0000 O   0  0  0  0  0  0  0  0  0  0  0  0
   10.0669   -4.6301    0.0000 C   0  0  0  0  0  0  0  0  0  0  0  0
    8.6180   -4.2419    0.0000 O   0  0  0  0  0  0  0  0  0  0  0  0
   10.4551   -6.0790    0.0000 C   0  0  0  0  0  0  0  0  0  0  0  0
    9.3944   -7.1396    0.0000 C   0  0  0  0  0  0  0  0  0  0  0  0
    9.2904   -1.7323    0.0000 C   0  0  0  0  0  0  0  0  0  0  0  0
    8.2297   -2.7930    0.0000 C   0  0  0  0  0  0  0  0  0  0  0  0
    8.9022   -0.2834    0.0000 O   0  0  0  0  0  0  0  0  0  0  0  0
    7.7375    4.0632    0.0000 C   0  0  0  0  0  0  0  0  0  0  0  0
    8.7981    5.1239    0.0000 N   0  0  0  0  0  0  0  0  0  0  0  0
    8.4099    6.5728    0.0000 C   0  0  0  0  0  0  0  0  0  0  0  0
   10.2470    4.7357    0.0000 C   0  0  0  0  0  0  0  0  0  0  0  0
    6.2886    4.4515    0.0000 C   0  0  0  0  0  0  0  0  0  0  0  0
    5.9004    5.9004    0.0000 O   0  0  0  0  0  0  0  0  0  0  0  0
    3.5517    1.4712    0.0000 C   0  0  0  0  0  0  0  0  0  0  0  0
    4.9376    2.0452    0.0000 O   0  0  0  0  0  0  0  0  0  0  0  0
    6.1276    1.1321    0.0000 C   0  0  0  0  0  0  0  0  0  0  0  0
  1  2  1  0
  2  3  1  0
  3  4  2  0
  3  5  1  0
  5  6  1  0
  6  7  1  0
  7  8  1  0
  8  9  2  0
  8 10  1  0
 10 11  1  0
 11 12  1  0
 11 13  1  0
 13 14  1  0
 14 15  1  0
 14 16  1  0
 16 17  1  0
 17 18  1  0
 17 19  1  0
 16 20  1  0
 20 21  2  0
 21 22  1  0
 22 23  1  0
 23 24  1  0
 24 25  1  0
 24 26  2  0
 22 27  1  0
 27 28  1  0
 27 29  1  0
 29 30  1  0
 30 31  1  0
 31 32  1  0
 32 33  2  0
 30 34  1  0
 34 35  1  0
 35 36  1  0
 36 37  1  0
 37 38  1  0
 38 39  1  0
 38 40  1  0
 40 41  1  0
 41 42  1  0
 42 43  1  0
 43 44  1  0
 44 45  1  0
 44 46  1  0
 44 47  1  0
 47 48  1  0
 48 49  1  0
 49 50  2  0
 49 51  1  0
 51 52  1  0
 47 53  1  0
 53 54  1  0
 53 55  1  0
 40 56  1  0
 56 57  1  0
 57 58  1  0
 57 59  1  0
 56 60  1  0
 60 61  1  0
 34 62  1  0
 62 63  1  0
 63 64  1  0
 62  6  1  0
 60 36  1  0
 55 42  1  0
M  END
>  <ChEMBL_IDs>  (588) 
nan

>  <target_organism>  (588) 
nan

>  <target_molecule_pref_name>  (588) 
nan

>  <# Known Targets>  (588) 
nan

>  <Known Targets>  (588) 
nan

>  <smiles>  (588) 
CCC(=O)OC1CC(=O)OC(C)CC(O)C(N(C)C)/C=C/C(OC(C)=O)C(C)CC(CC=O)C(OC2OC(C)C(OC3CC(C)(O)C(OC(=O)CC)C(C)O3)C(N(C)C)C2O)C1OC

$$$$

     RDKit          2D

 65 67  0  0  0  0  0  0  0  0999 V2000
   12.8444    2.5981    0.0000 C   0  0  0  0  0  0  0  0  0  0  0  0
   12.0944    1.2990    0.0000 C   0  0  0  0  0  0  0  0  0  0  0  0
   10.5944    1.2990    0.0000 O   0  0  0  0  0  0  0  0  0  0  0  0
    9.8444   -0.0000    0.0000 C   0  0  0  0  0  0  0  0  0  0  0  0
   10.5944   -1.2990    0.0000 O   0  0  0  0  0  0  0  0  0  0  0  0
    8.3444    0.0000    0.0000 N   0  0  0  0  0  0  0  0  0  0  0  0
    7.5944   -1.2990    0.0000 N   0  0  0  0  0  0  0  0  0  0  0  0
    6.0944   -1.2990    0.0000 C   0  0  0  0  0  0  0  0  0  0  0  0
    5.3444    0.0000    0.0000 C   0  0  0  0  0  0  0  0  0  0  0  0
    3.8444    0.0000    0.0000 C   0  0  0  0  0  0  0  0  0  0  0  0
    3.5517   -1.4712    0.0000 C   0  0  0  0  0  0  0  0  0  0  0  0
    2.7184   -2.7184    0.0000 C   0  0  0  0  0  0  0  0  0  0  0  0
    3.7790   -3.7790    0.0000 C   0  0  0  0  0  0  0  0  0  0  0  0
    1.4712   -3.5517    0.0000 C   0  0  0  0  0  0  0  0  0  0  0  0
    2.0452   -4.9376    0.0000 O   0  0  0  0  0  0  0  0  0  0  0  0
   -0.0000   -3.8444    0.0000 C   0  0  0  0  0  0  0  0  0  0  0  0
   -1.4712   -3.5517    0.0000 C   0  0  0  0  0  0  0  0  0  0  0  0
   -2.7184   -2.7184    0.0000 C   0  0  0  0  0  0  0  0  0  0  0  0
   -3.7790   -3.7790    0.0000 C   0  0  0  0  0  0  0  0  0  0  0  0
   -3.5517   -1.4712    0.0000 C   0  0  0  0  0  0  0  0  0  0  0  0
   -3.8444    0.0000    0.0000 C   0  0  0  0  0  0  0  0  0  0  0  0
   -5.3444    0.0000    0.0000 C   0  0  0  0  0  0  0  0  0  0  0  0
   -6.0944    1.2990    0.0000 O   0  0  0  0  0  0  0  0  0  0  0  0
   -7.5944    1.2990    0.0000 C   0  0  0  0  0  0  0  0  0  0  0  0
   -8.3444    2.5981    0.0000 O   0  0  0  0  0  0  0  0  0  0  0  0
   -9.8444    2.5981    0.0000 C   0  0  0  0  0  0  0  0  0  0  0  0
  -10.5944    3.8971    0.0000 C   0  0  0  0  0  0  0  0  0  0  0  0
  -10.5944    1.2990    0.0000 C   0  0  0  0  0  0  0  0  0  0  0  0
  -12.0944    1.2990    0.0000 O   0  0  0  0  0  0  0  0  0  0  0  0
   -9.8444    0.0000    0.0000 C   0  0  0  0  0  0  0  0  0  0  0  0
  -10.5944   -1.2990    0.0000 O   0  0  0  0  0  0  0  0  0  0  0  0
   -9.8444   -2.5981    0.0000 C   0  0  0  0  0  0  0  0  0  0  0  0
   -8.3444    0.0000    0.0000 C   0  0  0  0  0  0  0  0  0  0  0  0
   -7.5944   -1.2990    0.0000 O   0  0  0  0  0  0  0  0  0  0  0  0
   -8.3444   -2.5981    0.0000 C   0  0  0  0  0  0  0  0  0  0  0  0
   -3.5517    1.4712    0.0000 C   0  0  0  0  0  0  0  0  0  0  0  0
   -4.9376    2.0452    0.0000 C   0  0  0  0  0  0  0  0  0  0  0  0
   -5.1333    3.5324    0.0000 C   0  0  0  0  0  0  0  0  0  0  0  0
   -2.7184    2.7184    0.0000 O   0  0  0  0  0  0  0  0  0  0  0  0
   -1.4712    3.5517    0.0000 C   0  0  0  0  0  0  0  0  0  0  0  0
   -2.0452    4.9376    0.0000 O   0  0  0  0  0  0  0  0  0  0  0  0
    0.0000    3.8444    0.0000 C   0  0  0  0  0  0  0  0  0  0  0  0
    1.4712    3.5517    0.0000 C   0  0  0  0  0  0  0  0  0  0  0  0
    2.0452    4.9376    0.0000 O   0  0  0  0  0  0  0  0  0  0  0  0
    2.7184    2.7184    0.0000 C   0  0  0  0  0  0  0  0  0  0  0  0
    3.3441    3.7599    0.0000 C   0  0  0  0  0  0  0  0  0  0  0  0
    3.5517    1.4712    0.0000 C   0  0  0  0  0  0  0  0  0  0  0  0
    4.9376    2.0452    0.0000 O   0  0  0  0  0  0  0  0  0  0  0  0
    5.1333    3.5324    0.0000 C   0  0  0  0  0  0  0  0  0  0  0  0
    3.9433    4.4455    0.0000 O   0  0  0  0  0  0  0  0  0  0  0  0
    4.1391    5.9327    0.0000 C   0  0  0  0  0  0  0  0  0  0  0  0
    2.9491    6.8458    0.0000 C   0  0  0  0  0  0  0  0  0  0  0  0
    5.5249    6.5067    0.0000 C   0  0  0  0  0  0  0  0  0  0  0  0
    5.7207    7.9939    0.0000 O   0  0  0  0  0  0  0  0  0  0  0  0
    6.7150    5.5936    0.0000 C   0  0  0  0  0  0  0  0  0  0  0  0
    8.1008    6.1676    0.0000 N   0  0  0  0  0  0  0  0  0  0  0  0
    9.2908    5.2544    0.0000 C   0  0  0  0  0  0  0  0  0  0  0  0
    8.2966    7.6548    0.0000 C   0  0  0  0  0  0  0  0  0  0  0  0
    6.5192    4.1064    0.0000 C   0  0  0  0  0  0  0  0  0  0  0  0
    7.7092    3.1933    0.0000 O   0  0  0  0  0  0  0  0  0  0  0  0
    8.3444   -2.5981    0.0000 C   0  0  0  0  0  0  0  0  0  0  0  0
    7.5944   -3.8971    0.0000 O   0  0  0  0  0  0  0  0  0  0  0  0
    9.8444   -2.5981    0.0000 O   0  0  0  0  0  0  0  0  0  0  0  0
   10.5944   -3.8971    0.0000 C   0  0  0  0  0  0  0  0  0  0  0  0
   12.0944   -3.8971    0.0000 C   0  0  0  0  0  0  0  0  0  0  0  0
  1  2  1  0
  2  3  1  0
  3  4  1  0
  4  5  2  0
  4  6  1  0
  6  7  1  0
  7  8  1  0
  8  9  1  0
 10  9  1  1
 10 11  1  0
 11 12  1  0
 12 13  1  1
 12 14  1  0
 14 15  2  0
 14 16  1  0
 16 17  2  0
 17 18  1  0
 18 19  1  0
 18 20  2  0
 20 21  1  0
 21 22  1  6
 22 23  1  0
 24 23  1  1
 24 25  1  0
 25 26  1  0
 26 27  1  1
 26 28  1  0
 28 29  1  6
 28 30  1  0
 30 31  1  6
 31 32  1  0
 30 33  1  0
 33 34  1  6
 34 35  1  0
 21 36  1  0
 36 37  1  1
 37 38  1  0
 36 39  1  0
 39 40  1  0
 40 41  2  0
 40 42  1  0
 42 43  1  0
 43 44  1  1
 43 45  1  0
 45 46  1  6
 45 47  1  0
 47 48  1  1
 49 48  1  6
 49 50  1  0
 50 51  1  0
 51 52  1  6
 51 53  1  0
 53 54  1  1
 53 55  1  0
 55 56  1  6
 56 57  1  0
 56 58  1  0
 55 59  1  0
 59 60  1  1
  7 61  1  0
 61 62  2  0
 61 63  1  0
 63 64  1  0
 64 65  1  0
 47 10  1  0
 59 49  1  0
 33 24  1  0
M  END
>  <ChEMBL_IDs>  (589) 
CHEMBL298233

>  <target_organism>  (589) 
None

>  <target_molecule_pref_name>  (589) 
nan

>  <# Known Targets>  (589) 
nan

>  <Known Targets>  (589) 
nan

>  <smiles>  (589) 
CCOC(=O)NN(CC[C@H]1C[C@@H](C)C(=O)/C=C/C(C)=C/[C@H](CO[C@@H]2O[C@H](C)[C@@H](O)[C@@H](OC)[C@H]2OC)[C@@H](CC)OC(=O)C[C@@H](O)[C@H](C)[C@H]1O[C@@H]1O[C@H](C)[C@@H](O)[C@H](N(C)C)[C@H]1O)C(=O)OCC

$$$$

     RDKit          2D

 60 62  0  0  0  0  0  0  0  0999 V2000
   10.5944   -3.8971    0.0000 C   0  0  0  0  0  0  0  0  0  0  0  0
    9.8444   -2.5981    0.0000 C   0  0  0  0  0  0  0  0  0  0  0  0
    8.3444   -2.5981    0.0000 C   0  0  0  0  0  0  0  0  0  0  0  0
    7.5944   -1.2990    0.0000 N   0  0  0  0  0  0  0  0  0  0  0  0
    8.3444    0.0000    0.0000 C   0  0  0  0  0  0  0  0  0  0  0  0
    9.8444   -0.0000    0.0000 C   0  0  0  0  0  0  0  0  0  0  0  0
   10.5944    1.2990    0.0000 C   0  0  0  0  0  0  0  0  0  0  0  0
    6.0944   -1.2990    0.0000 C   0  0  0  0  0  0  0  0  0  0  0  0
    5.3444    0.0000    0.0000 C   0  0  0  0  0  0  0  0  0  0  0  0
    3.8444    0.0000    0.0000 C   0  0  0  0  0  0  0  0  0  0  0  0
    3.5517   -1.4712    0.0000 C   0  0  0  0  0  0  0  0  0  0  0  0
    2.7184   -2.7184    0.0000 C   0  0  0  0  0  0  0  0  0  0  0  0
    3.7790   -3.7790    0.0000 C   0  0  0  0  0  0  0  0  0  0  0  0
    1.4712   -3.5517    0.0000 C   0  0  0  0  0  0  0  0  0  0  0  0
    2.0452   -4.9376    0.0000 O   0  0  0  0  0  0  0  0  0  0  0  0
   -0.0000   -3.8444    0.0000 C   0  0  0  0  0  0  0  0  0  0  0  0
   -1.4712   -3.5517    0.0000 C   0  0  0  0  0  0  0  0  0  0  0  0
   -2.7184   -2.7184    0.0000 C   0  0  0  0  0  0  0  0  0  0  0  0
   -3.7790   -3.7790    0.0000 C   0  0  0  0  0  0  0  0  0  0  0  0
   -3.5517   -1.4712    0.0000 C   0  0  0  0  0  0  0  0  0  0  0  0
   -3.8444    0.0000    0.0000 C   0  0  0  0  0  0  0  0  0  0  0  0
   -5.3444    0.0000    0.0000 C   0  0  0  0  0  0  0  0  0  0  0  0
   -6.0944    1.2990    0.0000 O   0  0  0  0  0  0  0  0  0  0  0  0
   -7.5944    1.2990    0.0000 C   0  0  0  0  0  0  0  0  0  0  0  0
   -8.3444    2.5981    0.0000 O   0  0  0  0  0  0  0  0  0  0  0  0
   -9.8444    2.5981    0.0000 C   0  0  0  0  0  0  0  0  0  0  0  0
  -10.5944    3.8971    0.0000 C   0  0  0  0  0  0  0  0  0  0  0  0
  -10.5944    1.2990    0.0000 C   0  0  0  0  0  0  0  0  0  0  0  0
  -12.0944    1.2990    0.0000 O   0  0  0  0  0  0  0  0  0  0  0  0
   -9.8444    0.0000    0.0000 C   0  0  0  0  0  0  0  0  0  0  0  0
  -10.5944   -1.2990    0.0000 O   0  0  0  0  0  0  0  0  0  0  0  0
   -9.8444   -2.5981    0.0000 C   0  0  0  0  0  0  0  0  0  0  0  0
   -8.3444    0.0000    0.0000 C   0  0  0  0  0  0  0  0  0  0  0  0
   -7.5944   -1.2990    0.0000 O   0  0  0  0  0  0  0  0  0  0  0  0
   -8.3444   -2.5981    0.0000 C   0  0  0  0  0  0  0  0  0  0  0  0
   -3.5517    1.4712    0.0000 C   0  0  0  0  0  0  0  0  0  0  0  0
   -4.9376    2.0452    0.0000 C   0  0  0  0  0  0  0  0  0  0  0  0
   -5.1333    3.5324    0.0000 C   0  0  0  0  0  0  0  0  0  0  0  0
   -2.7184    2.7184    0.0000 O   0  0  0  0  0  0  0  0  0  0  0  0
   -1.4712    3.5517    0.0000 C   0  0  0  0  0  0  0  0  0  0  0  0
   -2.0452    4.9376    0.0000 O   0  0  0  0  0  0  0  0  0  0  0  0
    0.0000    3.8444    0.0000 C   0  0  0  0  0  0  0  0  0  0  0  0
    1.4712    3.5517    0.0000 C   0  0  0  0  0  0  0  0  0  0  0  0
    2.0452    4.9376    0.0000 O   0  0  0  0  0  0  0  0  0  0  0  0
    2.7184    2.7184    0.0000 C   0  0  0  0  0  0  0  0  0  0  0  0
    3.3441    3.7599    0.0000 C   0  0  0  0  0  0  0  0  0  0  0  0
    3.5517    1.4712    0.0000 C   0  0  0  0  0  0  0  0  0  0  0  0
    4.9376    2.0452    0.0000 O   0  0  0  0  0  0  0  0  0  0  0  0
    5.1333    3.5324    0.0000 C   0  0  0  0  0  0  0  0  0  0  0  0
    3.9433    4.4455    0.0000 O   0  0  0  0  0  0  0  0  0  0  0  0
    4.1391    5.9327    0.0000 C   0  0  0  0  0  0  0  0  0  0  0  0
    2.9491    6.8458    0.0000 C   0  0  0  0  0  0  0  0  0  0  0  0
    5.5249    6.5067    0.0000 C   0  0  0  0  0  0  0  0  0  0  0  0
    5.7207    7.9939    0.0000 O   0  0  0  0  0  0  0  0  0  0  0  0
    6.7150    5.5936    0.0000 C   0  0  0  0  0  0  0  0  0  0  0  0
    8.1008    6.1676    0.0000 N   0  0  0  0  0  0  0  0  0  0  0  0
    9.2908    5.2544    0.0000 C   0  0  0  0  0  0  0  0  0  0  0  0
    8.2966    7.6548    0.0000 C   0  0  0  0  0  0  0  0  0  0  0  0
    6.5192    4.1064    0.0000 C   0  0  0  0  0  0  0  0  0  0  0  0
    7.7092    3.1933    0.0000 O   0  0  0  0  0  0  0  0  0  0  0  0
  1  2  1  0
  2  3  1  0
  3  4  1  0
  4  5  1  0
  5  6  1  0
  6  7  1  0
  4  8  1  0
  8  9  1  0
 10  9  1  1
 10 11  1  0
 11 12  1  0
 12 13  1  1
 12 14  1  0
 14 15  2  0
 14 16  1  0
 16 17  2  0
 17 18  1  0
 18 19  1  0
 18 20  2  0
 20 21  1  0
 21 22  1  6
 22 23  1  0
 23 24  1  0
 24 25  1  0
 25 26  1  0
 26 27  1  1
 26 28  1  0
 28 29  1  6
 28 30  1  0
 30 31  1  6
 31 32  1  0
 30 33  1  0
 33 34  1  6
 34 35  1  0
 21 36  1  0
 36 37  1  1
 37 38  1  0
 36 39  1  0
 39 40  1  0
 40 41  2  0
 40 42  1  0
 42 43  1  0
 43 44  1  1
 43 45  1  0
 45 46  1  6
 45 47  1  0
 47 48  1  1
 49 48  1  6
 49 50  1  0
 50 51  1  0
 51 52  1  6
 51 53  1  0
 53 54  1  6
 53 55  1  0
 55 56  1  6
 56 57  1  0
 56 58  1  0
 55 59  1  0
 59 60  1  1
 47 10  1  0
 59 49  1  0
 33 24  1  0
M  END
>  <ChEMBL_IDs>  (590) 
nan

>  <target_organism>  (590) 
nan

>  <target_molecule_pref_name>  (590) 
nan

>  <# Known Targets>  (590) 
nan

>  <Known Targets>  (590) 
nan

>  <smiles>  (590) 
CCCN(CCC)CC[C@H]1C[C@@H](C)C(=O)/C=C/C(C)=C/[C@H](COC2O[C@H](C)[C@@H](O)[C@@H](OC)[C@H]2OC)[C@@H](CC)OC(=O)C[C@@H](O)[C@H](C)[C@H]1O[C@@H]1O[C@H](C)[C@H](O)[C@H](N(C)C)[C@H]1O

$$$$

     RDKit          2D

 63 65  0  0  0  0  0  0  0  0999 V2000
    5.6205   -1.2990    0.0000 C   0  0  0  0  0  0  0  0  0  0  0  0
    4.8705    0.0000    0.0000 C   0  0  0  0  0  0  0  0  0  0  0  0
    3.3705    0.0000    0.0000 C   0  0  0  0  0  0  0  0  0  0  0  0
    3.0367   -1.4624    0.0000 O   0  0  0  0  0  0  0  0  0  0  0  0
    2.1015   -2.6351    0.0000 C   0  0  0  0  0  0  0  0  0  0  0  0
    3.0367   -3.8079    0.0000 O   0  0  0  0  0  0  0  0  0  0  0  0
    0.7500   -3.2860    0.0000 C   0  0  0  0  0  0  0  0  0  0  0  0
    1.3600   -4.4903    0.0000 C   0  0  0  0  0  0  0  0  0  0  0  0
   -0.7500   -3.2860    0.0000 C   0  0  0  0  0  0  0  0  0  0  0  0
   -1.0838   -4.7484    0.0000 O   0  0  0  0  0  0  0  0  0  0  0  0
    0.0158   -5.7686    0.0000 C   0  0  0  0  0  0  0  0  0  0  0  0
   -0.3180   -7.2310    0.0000 C   0  0  0  0  0  0  0  0  0  0  0  0
    0.7816   -8.2513    0.0000 C   0  0  0  0  0  0  0  0  0  0  0  0
    1.4659   -9.5861    0.0000 C   0  0  0  0  0  0  0  0  0  0  0  0
   -0.4141   -9.1570    0.0000 O   0  0  0  0  0  0  0  0  0  0  0  0
   -0.2276  -10.6453    0.0000 C   0  0  0  0  0  0  0  0  0  0  0  0
    2.2150   -7.8091    0.0000 C   0  0  0  0  0  0  0  0  0  0  0  0
    3.3145   -8.8294    0.0000 O   0  0  0  0  0  0  0  0  0  0  0  0
    2.5487   -6.3467    0.0000 C   0  0  0  0  0  0  0  0  0  0  0  0
    3.9821   -5.9046    0.0000 C   0  0  0  0  0  0  0  0  0  0  0  0
    1.4492   -5.3265    0.0000 O   0  0  0  0  0  0  0  0  0  0  0  0
   -2.1015   -2.6351    0.0000 C   0  0  0  0  0  0  0  0  0  0  0  0
   -3.0367   -3.8079    0.0000 C   0  0  0  0  0  0  0  0  0  0  0  0
   -3.0367   -1.4624    0.0000 C   0  0  0  0  0  0  0  0  0  0  0  0
   -4.3881   -2.1132    0.0000 O   0  0  0  0  0  0  0  0  0  0  0  0
   -5.6275   -1.2682    0.0000 C   0  0  0  0  0  0  0  0  0  0  0  0
   -5.5154    0.2276    0.0000 O   0  0  0  0  0  0  0  0  0  0  0  0
   -6.7548    1.0725    0.0000 C   0  0  0  0  0  0  0  0  0  0  0  0
   -6.6427    2.5684    0.0000 C   0  0  0  0  0  0  0  0  0  0  0  0
   -8.1062    0.4217    0.0000 C   0  0  0  0  0  0  0  0  0  0  0  0
   -8.2183   -1.0741    0.0000 C   0  0  0  0  0  0  0  0  0  0  0  0
   -9.5698   -1.7249    0.0000 N   0  0  0  0  0  0  0  0  0  0  0  0
  -10.8091   -0.8799    0.0000 C   0  0  0  0  0  0  0  0  0  0  0  0
   -9.6819   -3.2207    0.0000 C   0  0  0  0  0  0  0  0  0  0  0  0
   -6.9790   -1.9191    0.0000 C   0  0  0  0  0  0  0  0  0  0  0  0
   -7.0910   -3.4149    0.0000 O   0  0  0  0  0  0  0  0  0  0  0  0
   -3.3705    0.0000    0.0000 C   0  0  0  0  0  0  0  0  0  0  0  0
   -4.6098   -0.8450    0.0000 C   0  0  0  0  0  0  0  0  0  0  0  0
   -4.6098    0.8450    0.0000 O   0  0  0  0  0  0  0  0  0  0  0  0
   -3.0367    1.4624    0.0000 C   0  0  0  0  0  0  0  0  0  0  0  0
   -2.1015    2.6351    0.0000 C   0  0  0  0  0  0  0  0  0  0  0  0
   -3.0367    3.8079    0.0000 C   0  0  0  0  0  0  0  0  0  0  0  0
   -0.7500    3.2860    0.0000 C   0  0  0  0  0  0  0  0  0  0  0  0
   -1.0838    4.7484    0.0000 O   0  0  0  0  0  0  0  0  0  0  0  0
    0.7500    3.2860    0.0000 C   0  0  0  0  0  0  0  0  0  0  0  0
    1.0838    4.7484    0.0000 C   0  0  0  0  0  0  0  0  0  0  0  0
    2.1015    2.6351    0.0000 C   0  0  0  0  0  0  0  0  0  0  0  0
    3.0367    3.8079    0.0000 O   0  0  0  0  0  0  0  0  0  0  0  0
    4.5199    3.5843    0.0000 C   0  0  0  0  0  0  0  0  0  0  0  0
    5.0679    2.1880    0.0000 O   0  0  0  0  0  0  0  0  0  0  0  0
    5.4552    4.7571    0.0000 C   0  0  0  0  0  0  0  0  0  0  0  0
    6.9384    4.5335    0.0000 C   0  0  0  0  0  0  0  0  0  0  0  0
    7.8736    5.7063    0.0000 N   0  0  0  0  0  0  0  0  0  0  0  0
    9.3569    5.4827    0.0000 C   0  0  0  0  0  0  0  0  0  0  0  0
   10.2921    6.6554    0.0000 O   0  0  0  0  0  0  0  0  0  0  0  0
    9.9049    4.0864    0.0000 O   0  0  0  0  0  0  0  0  0  0  0  0
   11.3882    3.8628    0.0000 C   0  0  0  0  0  0  0  0  0  0  0  0
   11.1646    2.3796    0.0000 C   0  0  0  0  0  0  0  0  0  0  0  0
   11.6117    5.3461    0.0000 C   0  0  0  0  0  0  0  0  0  0  0  0
   12.8714    3.6393    0.0000 C   0  0  0  0  0  0  0  0  0  0  0  0
    3.0367    1.4624    0.0000 C   0  0  0  0  0  0  0  0  0  0  0  0
    3.7867    2.7614    0.0000 C   0  0  0  0  0  0  0  0  0  0  0  0
    4.5199    1.2388    0.0000 O   0  0  0  0  0  0  0  0  0  0  0  0
  1  2  1  0
  2  3  1  0
  3  4  1  0
  4  5  1  0
  5  6  2  0
  5  7  1  0
  7  8  1  0
  7  9  1  0
  9 10  1  0
 10 11  1  0
 11 12  1  0
 12 13  1  0
 13 14  1  0
 13 15  1  0
 15 16  1  0
 13 17  1  0
 17 18  1  0
 17 19  1  0
 19 20  1  0
 19 21  1  0
  9 22  1  0
 22 23  1  0
 22 24  1  0
 24 25  1  0
 25 26  1  0
 26 27  1  0
 27 28  1  0
 28 29  1  0
 28 30  1  0
 30 31  1  0
 31 32  1  0
 32 33  1  0
 32 34  1  0
 31 35  1  0
 35 36  1  0
 24 37  1  0
 37 38  1  0
 37 39  1  0
 37 40  1  0
 40 41  1  0
 41 42  1  0
 41 43  1  0
 43 44  2  0
 43 45  1  0
 45 46  1  0
 45 47  1  0
 47 48  1  0
 48 49  1  0
 49 50  2  0
 49 51  1  0
 51 52  1  0
 52 53  1  0
 53 54  1  0
 54 55  2  0
 54 56  1  0
 56 57  1  0
 57 58  1  0
 57 59  1  0
 57 60  1  0
 47 61  1  0
 61 62  1  0
 61 63  1  0
 61  3  1  0
 21 11  1  0
 35 26  1  0
M  END
>  <ChEMBL_IDs>  (591) 
nan

>  <target_organism>  (591) 
nan

>  <target_molecule_pref_name>  (591) 
nan

>  <# Known Targets>  (591) 
nan

>  <Known Targets>  (591) 
nan

>  <smiles>  (591) 
CCC1OC(=O)C(C)C(OC2CC(C)(OC)C(O)C(C)O2)C(C)C(OC2OC(C)CC(N(C)C)C2O)C(C)(O)CC(C)C(=O)C(C)C(OC(=O)CCNC(=O)OC(C)(C)C)C1(C)O

$$$$

     RDKit          2D

 61 63  0  0  0  0  0  0  0  0999 V2000
    6.0944   -1.2990    0.0000 C   0  0  0  0  0  0  0  0  0  0  0  0
    5.3444    0.0000    0.0000 C   0  0  0  0  0  0  0  0  0  0  0  0
    3.8444    0.0000    0.0000 C   0  0  0  0  0  0  0  0  0  0  0  0
    3.5517   -1.4712    0.0000 O   0  0  0  0  0  0  0  0  0  0  0  0
    2.7184   -2.7184    0.0000 C   0  0  0  0  0  0  0  0  0  0  0  0
    3.7790   -3.7790    0.0000 O   0  0  0  0  0  0  0  0  0  0  0  0
    1.4712   -3.5517    0.0000 C   0  0  0  0  0  0  0  0  0  0  0  0
   -0.0000   -3.8444    0.0000 C   0  0  0  0  0  0  0  0  0  0  0  0
   -0.0000   -5.3444    0.0000 O   0  0  0  0  0  0  0  0  0  0  0  0
   -1.4712   -3.5517    0.0000 C   0  0  0  0  0  0  0  0  0  0  0  0
   -1.6507   -4.7534    0.0000 C   0  0  0  0  0  0  0  0  0  0  0  0
   -2.7184   -2.7184    0.0000 C   0  0  0  0  0  0  0  0  0  0  0  0
   -3.7790   -3.7790    0.0000 O   0  0  0  0  0  0  0  0  0  0  0  0
   -3.3908   -5.2279    0.0000 C   0  0  0  0  0  0  0  0  0  0  0  0
   -1.9419   -5.6162    0.0000 O   0  0  0  0  0  0  0  0  0  0  0  0
   -1.5537   -7.0650    0.0000 C   0  0  0  0  0  0  0  0  0  0  0  0
   -0.1048   -7.4533    0.0000 C   0  0  0  0  0  0  0  0  0  0  0  0
   -2.6144   -8.1257    0.0000 C   0  0  0  0  0  0  0  0  0  0  0  0
   -2.2261   -9.5746    0.0000 O   0  0  0  0  0  0  0  0  0  0  0  0
   -4.0632   -7.7375    0.0000 C   0  0  0  0  0  0  0  0  0  0  0  0
   -5.1239   -8.7981    0.0000 N   0  0  0  0  0  0  0  0  0  0  0  0
   -6.5728   -8.4099    0.0000 C   0  0  0  0  0  0  0  0  0  0  0  0
   -4.7357  -10.2470    0.0000 C   0  0  0  0  0  0  0  0  0  0  0  0
   -4.4515   -6.2886    0.0000 C   0  0  0  0  0  0  0  0  0  0  0  0
   -5.9004   -5.9004    0.0000 O   0  0  0  0  0  0  0  0  0  0  0  0
   -3.5517   -1.4712    0.0000 C   0  0  0  0  0  0  0  0  0  0  0  0
   -4.9376   -2.0452    0.0000 C   0  0  0  0  0  0  0  0  0  0  0  0
   -6.1276   -1.1321    0.0000 C   0  0  0  0  0  0  0  0  0  0  0  0
   -7.5134   -1.7061    0.0000 N   0  0  0  0  0  0  0  0  0  0  0  0
   -8.7034   -0.7929    0.0000 C   0  0  0  0  0  0  0  0  0  0  0  0
   -7.7092   -3.1933    0.0000 C   0  0  0  0  0  0  0  0  0  0  0  0
   -9.0950   -3.7673    0.0000 C   0  0  0  0  0  0  0  0  0  0  0  0
   -9.2908   -5.2544    0.0000 C   0  0  0  0  0  0  0  0  0  0  0  0
  -10.6766   -5.8285    0.0000 N   0  0  0  0  0  0  0  0  0  0  0  0
  -10.8724   -7.3156    0.0000 C   0  0  0  0  0  0  0  0  0  0  0  0
  -11.8667   -4.9153    0.0000 C   0  0  0  0  0  0  0  0  0  0  0  0
   -3.8444    0.0000    0.0000 C   0  0  0  0  0  0  0  0  0  0  0  0
   -3.5517    1.4712    0.0000 C   0  0  0  0  0  0  0  0  0  0  0  0
   -4.9376    2.0452    0.0000 C   0  0  0  0  0  0  0  0  0  0  0  0
   -2.7184    2.7184    0.0000 C   0  0  0  0  0  0  0  0  0  0  0  0
   -3.7790    3.7790    0.0000 O   0  0  0  0  0  0  0  0  0  0  0  0
   -1.4712    3.5517    0.0000 C   0  0  0  0  0  0  0  0  0  0  0  0
    0.0000    3.8444    0.0000 C   0  0  0  0  0  0  0  0  0  0  0  0
    1.4712    3.5517    0.0000 C   0  0  0  0  0  0  0  0  0  0  0  0
    2.0452    4.9376    0.0000 C   0  0  0  0  0  0  0  0  0  0  0  0
    2.7184    2.7184    0.0000 C   0  0  0  0  0  0  0  0  0  0  0  0
    3.5517    1.4712    0.0000 C   0  0  0  0  0  0  0  0  0  0  0  0
    4.9376    2.0452    0.0000 C   0  0  0  0  0  0  0  0  0  0  0  0
    6.1276    1.1321    0.0000 O   0  0  0  0  0  0  0  0  0  0  0  0
    7.5134    1.7061    0.0000 C   0  0  0  0  0  0  0  0  0  0  0  0
    8.7034    0.7929    0.0000 O   0  0  0  0  0  0  0  0  0  0  0  0
   10.0893    1.3670    0.0000 C   0  0  0  0  0  0  0  0  0  0  0  0
   11.2793    0.4538    0.0000 C   0  0  0  0  0  0  0  0  0  0  0  0
   10.2850    2.8541    0.0000 C   0  0  0  0  0  0  0  0  0  0  0  0
   11.6709    3.4282    0.0000 O   0  0  0  0  0  0  0  0  0  0  0  0
    9.0950    3.7673    0.0000 C   0  0  0  0  0  0  0  0  0  0  0  0
    9.2908    5.2544    0.0000 O   0  0  0  0  0  0  0  0  0  0  0  0
    8.1008    6.1676    0.0000 C   0  0  0  0  0  0  0  0  0  0  0  0
    7.7092    3.1933    0.0000 C   0  0  0  0  0  0  0  0  0  0  0  0
    6.5192    4.1064    0.0000 O   0  0  0  0  0  0  0  0  0  0  0  0
    6.7150    5.5936    0.0000 C   0  0  0  0  0  0  0  0  0  0  0  0
  1  2  1  0
  3  2  1  1
  3  4  1  0
  4  5  1  0
  5  6  2  0
  5  7  1  0
  7  8  1  0
  8  9  1  0
  8 10  1  0
 10 11  1  6
 10 12  1  0
 12 13  1  1
 14 13  1  6
 14 15  1  0
 15 16  1  0
 16 17  1  6
 16 18  1  0
 18 19  1  1
 18 20  1  0
 20 21  1  6
 21 22  1  0
 21 23  1  0
 20 24  1  0
 24 25  1  1
 12 26  1  0
 26 27  1  1
 27 28  1  0
 28 29  1  0
 29 30  1  0
 29 31  1  0
 31 32  1  0
 32 33  1  0
 33 34  1  0
 34 35  1  0
 34 36  1  0
 26 37  1  0
 37 38  1  0
 38 39  1  1
 38 40  1  0
 40 41  2  0
 40 42  1  0
 42 43  2  0
 43 44  1  0
 44 45  1  0
 44 46  2  0
 46 47  1  0
 47 48  1  6
 48 49  1  0
 50 49  1  1
 50 51  1  0
 51 52  1  0
 52 53  1  1
 52 54  1  0
 54 55  1  6
 54 56  1  0
 56 57  1  6
 57 58  1  0
 56 59  1  0
 59 60  1  6
 60 61  1  0
 47  3  1  0
 59 50  1  0
 24 14  1  0
M  END
>  <ChEMBL_IDs>  (592) 
CHEMBL266296

>  <target_organism>  (592) 
Homo sapiens,None

>  <target_molecule_pref_name>  (592) 
nan

>  <# Known Targets>  (592) 
nan

>  <Known Targets>  (592) 
nan

>  <smiles>  (592) 
CC[C@H]1OC(=O)CC(O)[C@H](C)[C@@H](O[C@@H]2O[C@H](C)[C@@H](O)[C@H](N(C)C)[C@H]2O)[C@@H](CCN(C)CCCN(C)C)C[C@@H](C)C(=O)/C=C/C(C)=C/[C@@H]1CO[C@@H]1O[C@H](C)[C@@H](O)[C@@H](OC)[C@H]1OC

$$$$

     RDKit          2D

 60 62  0  0  0  0  0  0  0  0999 V2000
   13.8705    5.1962    0.0000 C   0  0  0  0  0  0  0  0  0  0  0  0
   12.3705    5.1962    0.0000 C   0  0  0  0  0  0  0  0  0  0  0  0
   11.6205    3.8971    0.0000 C   0  0  0  0  0  0  0  0  0  0  0  0
   10.1205    3.8971    0.0000 C   0  0  0  0  0  0  0  0  0  0  0  0
    9.3705    2.5981    0.0000 C   0  0  0  0  0  0  0  0  0  0  0  0
    7.8705    2.5981    0.0000 C   0  0  0  0  0  0  0  0  0  0  0  0
    7.1205    1.2990    0.0000 C   0  0  0  0  0  0  0  0  0  0  0  0
    5.6205    1.2990    0.0000 C   0  0  0  0  0  0  0  0  0  0  0  0
    4.8705    2.5981    0.0000 O   0  0  0  0  0  0  0  0  0  0  0  0
    4.8705    0.0000    0.0000 O   0  0  0  0  0  0  0  0  0  0  0  0
    3.3705    0.0000    0.0000 C   0  0  0  0  0  0  0  0  0  0  0  0
    3.0367   -1.4624    0.0000 C   0  0  0  0  0  0  0  0  0  0  0  0
    4.3881   -2.1132    0.0000 C   0  0  0  0  0  0  0  0  0  0  0  0
    2.1015   -2.6351    0.0000 C   0  0  0  0  0  0  0  0  0  0  0  0
    3.0367   -3.8079    0.0000 O   0  0  0  0  0  0  0  0  0  0  0  0
    0.7500   -3.2860    0.0000 C   0  0  0  0  0  0  0  0  0  0  0  0
    1.0838   -4.7484    0.0000 C   0  0  0  0  0  0  0  0  0  0  0  0
   -0.7500   -3.2860    0.0000 C   0  0  0  0  0  0  0  0  0  0  0  0
   -2.1015   -2.6351    0.0000 C   0  0  0  0  0  0  0  0  0  0  0  0
   -2.2135   -4.1309    0.0000 C   0  0  0  0  0  0  0  0  0  0  0  0
   -3.5348   -3.0773    0.0000 O   0  0  0  0  0  0  0  0  0  0  0  0
   -3.0367   -1.4624    0.0000 C   0  0  0  0  0  0  0  0  0  0  0  0
   -4.3881   -2.1132    0.0000 O   0  0  0  0  0  0  0  0  0  0  0  0
   -4.5002   -3.6090    0.0000 C   0  0  0  0  0  0  0  0  0  0  0  0
   -3.2609   -4.4540    0.0000 O   0  0  0  0  0  0  0  0  0  0  0  0
   -3.3730   -5.9498    0.0000 C   0  0  0  0  0  0  0  0  0  0  0  0
   -2.1336   -6.7948    0.0000 C   0  0  0  0  0  0  0  0  0  0  0  0
   -4.7244   -6.6006    0.0000 C   0  0  0  0  0  0  0  0  0  0  0  0
   -5.9638   -5.7557    0.0000 C   0  0  0  0  0  0  0  0  0  0  0  0
   -7.3152   -6.4065    0.0000 N   0  0  0  0  0  0  0  0  0  0  0  0
   -7.4273   -7.9023    0.0000 C   0  0  0  0  0  0  0  0  0  0  0  0
   -8.5546   -5.5615    0.0000 C   0  0  0  0  0  0  0  0  0  0  0  0
   -5.8517   -4.2598    0.0000 C   0  0  0  0  0  0  0  0  0  0  0  0
   -7.0910   -3.4149    0.0000 O   0  0  0  0  0  0  0  0  0  0  0  0
   -3.3705    0.0000    0.0000 C   0  0  0  0  0  0  0  0  0  0  0  0
   -4.8705    0.0000    0.0000 C   0  0  0  0  0  0  0  0  0  0  0  0
   -3.0367    1.4624    0.0000 C   0  0  0  0  0  0  0  0  0  0  0  0
   -4.3881    2.1132    0.0000 O   0  0  0  0  0  0  0  0  0  0  0  0
   -4.5002    3.6090    0.0000 C   0  0  0  0  0  0  0  0  0  0  0  0
   -5.8517    4.2598    0.0000 C   0  0  0  0  0  0  0  0  0  0  0  0
   -5.9638    5.7557    0.0000 C   0  0  0  0  0  0  0  0  0  0  0  0
   -6.5807    7.1229    0.0000 C   0  0  0  0  0  0  0  0  0  0  0  0
   -7.4174    5.3855    0.0000 O   0  0  0  0  0  0  0  0  0  0  0  0
   -8.4648    6.4593    0.0000 C   0  0  0  0  0  0  0  0  0  0  0  0
   -4.7244    6.6006    0.0000 C   0  0  0  0  0  0  0  0  0  0  0  0
   -4.8365    8.0964    0.0000 O   0  0  0  0  0  0  0  0  0  0  0  0
   -3.3730    5.9498    0.0000 C   0  0  0  0  0  0  0  0  0  0  0  0
   -2.1336    6.7948    0.0000 C   0  0  0  0  0  0  0  0  0  0  0  0
   -3.2609    4.4540    0.0000 O   0  0  0  0  0  0  0  0  0  0  0  0
   -2.1015    2.6351    0.0000 C   0  0  0  0  0  0  0  0  0  0  0  0
   -2.6628    3.8629    0.0000 C   0  0  0  0  0  0  0  0  0  0  0  0
   -0.7500    3.2860    0.0000 C   0  0  0  0  0  0  0  0  0  0  0  0
   -1.0838    4.7484    0.0000 O   0  0  0  0  0  0  0  0  0  0  0  0
    0.7500    3.2860    0.0000 O   0  0  0  0  0  0  0  0  0  0  0  0
    2.1015    2.6351    0.0000 C   0  0  0  0  0  0  0  0  0  0  0  0
    3.0367    3.8079    0.0000 C   0  0  0  0  0  0  0  0  0  0  0  0
    4.5199    3.5843    0.0000 C   0  0  0  0  0  0  0  0  0  0  0  0
    3.0367    1.4624    0.0000 C   0  0  0  0  0  0  0  0  0  0  0  0
    3.7867    2.7614    0.0000 C   0  0  0  0  0  0  0  0  0  0  0  0
    4.5199    1.2388    0.0000 O   0  0  0  0  0  0  0  0  0  0  0  0
  1  2  1  0
  2  3  1  0
  3  4  1  0
  4  5  1  0
  5  6  1  0
  6  7  1  0
  7  8  1  0
  8  9  2  0
  8 10  1  0
 10 11  1  0
 11 12  1  0
 12 13  1  0
 12 14  1  0
 14 15  2  0
 14 16  1  0
 16 17  1  0
 16 18  1  0
 18 19  1  0
 19 20  1  0
 19 21  1  0
 19 22  1  0
 22 23  1  0
 23 24  1  0
 24 25  1  0
 25 26  1  0
 26 27  1  0
 26 28  1  0
 28 29  1  0
 29 30  1  0
 30 31  1  0
 30 32  1  0
 29 33  1  0
 33 34  1  0
 22 35  1  0
 35 36  1  0
 35 37  1  0
 37 38  1  0
 38 39  1  0
 39 40  1  0
 40 41  1  0
 41 42  1  0
 41 43  1  0
 43 44  1  0
 41 45  1  0
 45 46  1  0
 45 47  1  0
 47 48  1  0
 47 49  1  0
 37 50  1  0
 50 51  1  0
 50 52  1  0
 52 53  2  0
 52 54  1  0
 54 55  1  0
 55 56  1  0
 56 57  1  0
 55 58  1  0
 58 59  1  0
 58 60  1  0
 58 11  1  0
 33 24  1  0
 49 39  1  0
M  END
>  <ChEMBL_IDs>  (593) 
nan

>  <target_organism>  (593) 
nan

>  <target_molecule_pref_name>  (593) 
nan

>  <# Known Targets>  (593) 
nan

>  <Known Targets>  (593) 
nan

>  <smiles>  (593) 
CCCCCCCC(=O)OC1C(C)C(=O)C(C)CC(C)(O)C(OC2OC(C)CC(N(C)C)C2O)C(C)C(OC2CC(C)(OC)C(O)C(C)O2)C(C)C(=O)OC(CC)C1(C)O

$$$$

     RDKit          2D

 61 63  0  0  0  0  0  0  0  0999 V2000
   12.3705    5.1962    0.0000 C   0  0  0  0  0  0  0  0  0  0  0  0
   11.6205    3.8971    0.0000 C   0  0  0  0  0  0  0  0  0  0  0  0
   10.1205    3.8971    0.0000 C   0  0  0  0  0  0  0  0  0  0  0  0
    9.3705    2.5981    0.0000 C   0  0  0  0  0  0  0  0  0  0  0  0
    7.8705    2.5981    0.0000 C   0  0  0  0  0  0  0  0  0  0  0  0
    7.1205    1.2990    0.0000 C   0  0  0  0  0  0  0  0  0  0  0  0
    5.6205    1.2990    0.0000 O   0  0  0  0  0  0  0  0  0  0  0  0
    4.8705    0.0000    0.0000 N   0  0  0  0  0  0  0  0  0  0  0  0
    3.3705    0.0000    0.0000 C   0  0  0  0  0  0  0  0  0  0  0  0
    3.0367   -1.4624    0.0000 C   0  0  0  0  0  0  0  0  0  0  0  0
    4.3881   -2.1132    0.0000 C   0  0  0  0  0  0  0  0  0  0  0  0
    2.1015   -2.6351    0.0000 C   0  0  0  0  0  0  0  0  0  0  0  0
    3.0367   -3.8079    0.0000 O   0  0  0  0  0  0  0  0  0  0  0  0
    0.7500   -3.2860    0.0000 C   0  0  0  0  0  0  0  0  0  0  0  0
    1.8496   -4.3062    0.0000 C   0  0  0  0  0  0  0  0  0  0  0  0
    0.2020   -4.6823    0.0000 O   0  0  0  0  0  0  0  0  0  0  0  0
   -0.7500   -3.2860    0.0000 C   0  0  0  0  0  0  0  0  0  0  0  0
   -1.0838   -4.7484    0.0000 C   0  0  0  0  0  0  0  0  0  0  0  0
   -2.5171   -5.1905    0.0000 C   0  0  0  0  0  0  0  0  0  0  0  0
   -2.1015   -2.6351    0.0000 O   0  0  0  0  0  0  0  0  0  0  0  0
   -3.0367   -1.4624    0.0000 C   0  0  0  0  0  0  0  0  0  0  0  0
   -4.3881   -2.1132    0.0000 O   0  0  0  0  0  0  0  0  0  0  0  0
   -3.3705    0.0000    0.0000 C   0  0  0  0  0  0  0  0  0  0  0  0
   -4.6804   -0.3267    0.0000 C   0  0  0  0  0  0  0  0  0  0  0  0
   -3.0367    1.4624    0.0000 C   0  0  0  0  0  0  0  0  0  0  0  0
   -4.3881    2.1132    0.0000 O   0  0  0  0  0  0  0  0  0  0  0  0
   -5.6275    1.2682    0.0000 C   0  0  0  0  0  0  0  0  0  0  0  0
   -6.9790    1.9191    0.0000 C   0  0  0  0  0  0  0  0  0  0  0  0
   -8.2183    1.0741    0.0000 C   0  0  0  0  0  0  0  0  0  0  0  0
   -9.6719    0.7039    0.0000 C   0  0  0  0  0  0  0  0  0  0  0  0
   -8.8352    2.4413    0.0000 O   0  0  0  0  0  0  0  0  0  0  0  0
  -10.3278    2.5907    0.0000 C   0  0  0  0  0  0  0  0  0  0  0  0
   -8.1062   -0.4217    0.0000 C   0  0  0  0  0  0  0  0  0  0  0  0
   -9.3456   -1.2667    0.0000 O   0  0  0  0  0  0  0  0  0  0  0  0
   -9.2335   -2.7625    0.0000 C   0  0  0  0  0  0  0  0  0  0  0  0
  -10.4728   -3.6075    0.0000 C   0  0  0  0  0  0  0  0  0  0  0  0
   -7.8820   -3.4133    0.0000 O   0  0  0  0  0  0  0  0  0  0  0  0
   -6.7548   -1.0725    0.0000 C   0  0  0  0  0  0  0  0  0  0  0  0
   -6.6427   -2.5684    0.0000 C   0  0  0  0  0  0  0  0  0  0  0  0
   -5.5154   -0.2276    0.0000 O   0  0  0  0  0  0  0  0  0  0  0  0
   -2.1015    2.6351    0.0000 C   0  0  0  0  0  0  0  0  0  0  0  0
   -3.0367    3.8079    0.0000 C   0  0  0  0  0  0  0  0  0  0  0  0
   -0.7500    3.2860    0.0000 C   0  0  0  0  0  0  0  0  0  0  0  0
   -1.0838    4.7484    0.0000 O   0  0  0  0  0  0  0  0  0  0  0  0
    0.0158    5.7686    0.0000 C   0  0  0  0  0  0  0  0  0  0  0  0
    1.4492    5.3265    0.0000 O   0  0  0  0  0  0  0  0  0  0  0  0
    2.5487    6.3467    0.0000 C   0  0  0  0  0  0  0  0  0  0  0  0
    3.9821    5.9046    0.0000 C   0  0  0  0  0  0  0  0  0  0  0  0
    2.2150    7.8091    0.0000 C   0  0  0  0  0  0  0  0  0  0  0  0
    0.7816    8.2513    0.0000 C   0  0  0  0  0  0  0  0  0  0  0  0
    0.4478    9.7137    0.0000 N   0  0  0  0  0  0  0  0  0  0  0  0
    1.5474   10.7339    0.0000 C   0  0  0  0  0  0  0  0  0  0  0  0
   -0.9855   10.1558    0.0000 C   0  0  0  0  0  0  0  0  0  0  0  0
   -0.3180    7.2310    0.0000 C   0  0  0  0  0  0  0  0  0  0  0  0
   -1.7513    7.6731    0.0000 O   0  0  0  0  0  0  0  0  0  0  0  0
    0.7500    3.2860    0.0000 C   0  0  0  0  0  0  0  0  0  0  0  0
    0.2020    4.6823    0.0000 C   0  0  0  0  0  0  0  0  0  0  0  0
    1.8496    4.3062    0.0000 O   0  0  0  0  0  0  0  0  0  0  0  0
    2.1015    2.6351    0.0000 C   0  0  0  0  0  0  0  0  0  0  0  0
    3.0367    1.4624    0.0000 C   0  0  0  0  0  0  0  0  0  0  0  0
    4.3881    2.1132    0.0000 C   0  0  0  0  0  0  0  0  0  0  0  0
  1  2  1  0
  2  3  1  0
  3  4  1  0
  4  5  1  0
  5  6  1  0
  6  7  1  0
  7  8  1  0
  8  9  2  0
  9 10  1  0
 10 11  1  6
 10 12  1  0
 12 13  1  1
 12 14  1  0
 14 15  1  1
 14 16  1  0
 14 17  1  0
 17 18  1  1
 18 19  1  0
 17 20  1  0
 20 21  1  0
 21 22  2  0
 21 23  1  0
 23 24  1  6
 23 25  1  0
 25 26  1  1
 27 26  1  6
 27 28  1  0
 28 29  1  0
 29 30  1  1
 29 31  1  0
 31 32  1  0
 29 33  1  0
 33 34  1  6
 34 35  1  0
 35 36  1  0
 35 37  2  0
 33 38  1  0
 38 39  1  1
 38 40  1  0
 25 41  1  0
 41 42  1  6
 41 43  1  0
 43 44  1  1
 45 44  1  1
 45 46  1  0
 46 47  1  0
 47 48  1  1
 47 49  1  0
 49 50  1  0
 50 51  1  1
 51 52  1  0
 51 53  1  0
 50 54  1  0
 54 55  1  6
 43 56  1  0
 56 57  1  1
 56 58  1  0
 56 59  1  0
 59 60  1  0
 60 61  1  1
 60  9  1  0
 40 27  1  0
 54 45  1  0
M  END
>  <ChEMBL_IDs>  (594) 
nan

>  <target_organism>  (594) 
nan

>  <target_molecule_pref_name>  (594) 
nan

>  <# Known Targets>  (594) 
nan

>  <Known Targets>  (594) 
nan

>  <smiles>  (594) 
CCCCCCO/N=C1/[C@H](C)[C@@H](O)[C@](C)(O)[C@@H](CC)OC(=O)[C@H](C)[C@@H](O[C@H]2C[C@@](C)(OC)[C@@H](OC(C)=O)[C@H](C)O2)[C@H](C)[C@@H](O[C@@H]2O[C@H](C)C[C@H](N(C)C)[C@H]2O)[C@](C)(O)C[C@H]1C

$$$$

     RDKit          2D

 60 62  0  0  0  0  0  0  0  0999 V2000
   14.6205    6.4952    0.0000 C   0  0  0  0  0  0  0  0  0  0  0  0
   13.8705    5.1962    0.0000 C   0  0  0  0  0  0  0  0  0  0  0  0
   12.3705    5.1962    0.0000 C   0  0  0  0  0  0  0  0  0  0  0  0
   11.6205    3.8971    0.0000 C   0  0  0  0  0  0  0  0  0  0  0  0
   10.1205    3.8971    0.0000 C   0  0  0  0  0  0  0  0  0  0  0  0
    9.3705    2.5981    0.0000 C   0  0  0  0  0  0  0  0  0  0  0  0
    7.8705    2.5981    0.0000 C   0  0  0  0  0  0  0  0  0  0  0  0
    7.1205    1.2990    0.0000 C   0  0  0  0  0  0  0  0  0  0  0  0
    5.6205    1.2990    0.0000 O   0  0  0  0  0  0  0  0  0  0  0  0
    4.8705    0.0000    0.0000 N   0  0  0  0  0  0  0  0  0  0  0  0
    3.3705    0.0000    0.0000 C   0  0  0  0  0  0  0  0  0  0  0  0
    3.0367   -1.4624    0.0000 C   0  0  0  0  0  0  0  0  0  0  0  0
    4.3881   -2.1132    0.0000 C   0  0  0  0  0  0  0  0  0  0  0  0
    2.1015   -2.6351    0.0000 C   0  0  0  0  0  0  0  0  0  0  0  0
    3.0367   -3.8079    0.0000 O   0  0  0  0  0  0  0  0  0  0  0  0
    0.7500   -3.2860    0.0000 C   0  0  0  0  0  0  0  0  0  0  0  0
    1.8496   -4.3062    0.0000 C   0  0  0  0  0  0  0  0  0  0  0  0
    0.2020   -4.6823    0.0000 O   0  0  0  0  0  0  0  0  0  0  0  0
   -0.7500   -3.2860    0.0000 C   0  0  0  0  0  0  0  0  0  0  0  0
   -1.0838   -4.7484    0.0000 C   0  0  0  0  0  0  0  0  0  0  0  0
   -2.5171   -5.1905    0.0000 C   0  0  0  0  0  0  0  0  0  0  0  0
   -2.1015   -2.6351    0.0000 O   0  0  0  0  0  0  0  0  0  0  0  0
   -3.0367   -1.4624    0.0000 C   0  0  0  0  0  0  0  0  0  0  0  0
   -4.3881   -2.1132    0.0000 O   0  0  0  0  0  0  0  0  0  0  0  0
   -3.3705    0.0000    0.0000 C   0  0  0  0  0  0  0  0  0  0  0  0
   -4.6804   -0.3267    0.0000 C   0  0  0  0  0  0  0  0  0  0  0  0
   -3.0367    1.4624    0.0000 C   0  0  0  0  0  0  0  0  0  0  0  0
   -4.3881    2.1132    0.0000 O   0  0  0  0  0  0  0  0  0  0  0  0
   -5.6275    1.2682    0.0000 C   0  0  0  0  0  0  0  0  0  0  0  0
   -6.9790    1.9191    0.0000 C   0  0  0  0  0  0  0  0  0  0  0  0
   -8.2183    1.0741    0.0000 C   0  0  0  0  0  0  0  0  0  0  0  0
   -9.6719    0.7039    0.0000 C   0  0  0  0  0  0  0  0  0  0  0  0
   -8.8352    2.4413    0.0000 O   0  0  0  0  0  0  0  0  0  0  0  0
  -10.3278    2.5907    0.0000 C   0  0  0  0  0  0  0  0  0  0  0  0
   -8.1062   -0.4217    0.0000 C   0  0  0  0  0  0  0  0  0  0  0  0
   -9.3456   -1.2667    0.0000 O   0  0  0  0  0  0  0  0  0  0  0  0
   -6.7548   -1.0725    0.0000 C   0  0  0  0  0  0  0  0  0  0  0  0
   -6.6427   -2.5684    0.0000 C   0  0  0  0  0  0  0  0  0  0  0  0
   -5.5154   -0.2276    0.0000 O   0  0  0  0  0  0  0  0  0  0  0  0
   -2.1015    2.6351    0.0000 C   0  0  0  0  0  0  0  0  0  0  0  0
   -3.0367    3.8079    0.0000 C   0  0  0  0  0  0  0  0  0  0  0  0
   -0.7500    3.2860    0.0000 C   0  0  0  0  0  0  0  0  0  0  0  0
   -1.0838    4.7484    0.0000 O   0  0  0  0  0  0  0  0  0  0  0  0
    0.0158    5.7686    0.0000 C   0  0  0  0  0  0  0  0  0  0  0  0
    1.4492    5.3265    0.0000 O   0  0  0  0  0  0  0  0  0  0  0  0
    2.5487    6.3467    0.0000 C   0  0  0  0  0  0  0  0  0  0  0  0
    3.9821    5.9046    0.0000 C   0  0  0  0  0  0  0  0  0  0  0  0
    2.2150    7.8091    0.0000 C   0  0  0  0  0  0  0  0  0  0  0  0
    0.7816    8.2513    0.0000 C   0  0  0  0  0  0  0  0  0  0  0  0
    0.4478    9.7137    0.0000 N   0  0  0  0  0  0  0  0  0  0  0  0
    1.5474   10.7339    0.0000 C   0  0  0  0  0  0  0  0  0  0  0  0
   -0.9855   10.1558    0.0000 C   0  0  0  0  0  0  0  0  0  0  0  0
   -0.3180    7.2310    0.0000 C   0  0  0  0  0  0  0  0  0  0  0  0
   -1.7513    7.6731    0.0000 O   0  0  0  0  0  0  0  0  0  0  0  0
    0.7500    3.2860    0.0000 C   0  0  0  0  0  0  0  0  0  0  0  0
    0.2020    4.6823    0.0000 C   0  0  0  0  0  0  0  0  0  0  0  0
    1.8496    4.3062    0.0000 O   0  0  0  0  0  0  0  0  0  0  0  0
    2.1015    2.6351    0.0000 C   0  0  0  0  0  0  0  0  0  0  0  0
    3.0367    1.4624    0.0000 C   0  0  0  0  0  0  0  0  0  0  0  0
    4.3881    2.1132    0.0000 C   0  0  0  0  0  0  0  0  0  0  0  0
  1  2  1  0
  2  3  1  0
  3  4  1  0
  4  5  1  0
  5  6  1  0
  6  7  1  0
  7  8  1  0
  8  9  1  0
  9 10  1  0
 10 11  2  0
 11 12  1  0
 12 13  1  6
 12 14  1  0
 14 15  1  1
 14 16  1  0
 16 17  1  1
 16 18  1  0
 16 19  1  0
 19 20  1  1
 20 21  1  0
 19 22  1  0
 22 23  1  0
 23 24  2  0
 23 25  1  0
 25 26  1  6
 25 27  1  0
 27 28  1  1
 28 29  1  0
 29 30  1  0
 30 31  1  0
 31 32  1  1
 31 33  1  0
 33 34  1  0
 31 35  1  0
 35 36  1  6
 35 37  1  0
 37 38  1  1
 37 39  1  0
 27 40  1  0
 40 41  1  6
 40 42  1  0
 42 43  1  1
 44 43  1  1
 44 45  1  0
 45 46  1  0
 46 47  1  1
 46 48  1  0
 48 49  1  0
 49 50  1  1
 50 51  1  0
 50 52  1  0
 49 53  1  0
 53 54  1  6
 42 55  1  0
 55 56  1  1
 55 57  1  0
 55 58  1  0
 58 59  1  0
 59 60  1  1
 59 11  1  0
 39 29  1  0
 53 44  1  0
M  END
>  <ChEMBL_IDs>  (595) 
nan

>  <target_organism>  (595) 
nan

>  <target_molecule_pref_name>  (595) 
nan

>  <# Known Targets>  (595) 
nan

>  <Known Targets>  (595) 
nan

>  <smiles>  (595) 
CCCCCCCCO/N=C1/[C@H](C)[C@@H](O)[C@](C)(O)[C@@H](CC)OC(=O)[C@H](C)[C@@H](OC2C[C@@](C)(OC)[C@@H](O)[C@H](C)O2)[C@H](C)[C@@H](O[C@@H]2O[C@H](C)C[C@H](N(C)C)[C@H]2O)[C@](C)(O)C[C@H]1C

$$$$

     RDKit          2D

 59 61  0  0  0  0  0  0  0  0999 V2000
   13.8705   -5.1962    0.0000 C   0  0  0  0  0  0  0  0  0  0  0  0
   12.3705   -5.1962    0.0000 C   0  0  0  0  0  0  0  0  0  0  0  0
   11.6205   -3.8971    0.0000 C   0  0  0  0  0  0  0  0  0  0  0  0
   10.1205   -3.8971    0.0000 C   0  0  0  0  0  0  0  0  0  0  0  0
    9.3705   -2.5981    0.0000 C   0  0  0  0  0  0  0  0  0  0  0  0
    7.8705   -2.5981    0.0000 C   0  0  0  0  0  0  0  0  0  0  0  0
    7.1205   -1.2990    0.0000 C   0  0  0  0  0  0  0  0  0  0  0  0
    5.6205   -1.2990    0.0000 C   0  0  0  0  0  0  0  0  0  0  0  0
    4.8705    0.0000    0.0000 N   0  0  0  0  0  0  0  0  0  0  0  0
    3.3705    0.0000    0.0000 C   0  0  0  0  0  0  0  0  0  0  0  0
    3.0367   -1.4624    0.0000 C   0  0  0  0  0  0  0  0  0  0  0  0
    4.3881   -2.1132    0.0000 C   0  0  0  0  0  0  0  0  0  0  0  0
    2.1015   -2.6351    0.0000 C   0  0  0  0  0  0  0  0  0  0  0  0
    3.0367   -3.8079    0.0000 O   0  0  0  0  0  0  0  0  0  0  0  0
    0.7500   -3.2860    0.0000 C   0  0  0  0  0  0  0  0  0  0  0  0
    1.8496   -4.3062    0.0000 C   0  0  0  0  0  0  0  0  0  0  0  0
    0.2020   -4.6823    0.0000 O   0  0  0  0  0  0  0  0  0  0  0  0
   -0.7500   -3.2860    0.0000 C   0  0  0  0  0  0  0  0  0  0  0  0
   -1.0838   -4.7484    0.0000 C   0  0  0  0  0  0  0  0  0  0  0  0
   -2.5171   -5.1905    0.0000 C   0  0  0  0  0  0  0  0  0  0  0  0
   -2.1015   -2.6351    0.0000 O   0  0  0  0  0  0  0  0  0  0  0  0
   -3.0367   -1.4624    0.0000 C   0  0  0  0  0  0  0  0  0  0  0  0
   -4.3881   -2.1132    0.0000 O   0  0  0  0  0  0  0  0  0  0  0  0
   -3.3705    0.0000    0.0000 C   0  0  0  0  0  0  0  0  0  0  0  0
   -4.6804   -0.3267    0.0000 C   0  0  0  0  0  0  0  0  0  0  0  0
   -3.0367    1.4624    0.0000 C   0  0  0  0  0  0  0  0  0  0  0  0
   -4.3881    2.1132    0.0000 O   0  0  0  0  0  0  0  0  0  0  0  0
   -5.6275    1.2682    0.0000 C   0  0  0  0  0  0  0  0  0  0  0  0
   -6.9790    1.9191    0.0000 C   0  0  0  0  0  0  0  0  0  0  0  0
   -8.2183    1.0741    0.0000 C   0  0  0  0  0  0  0  0  0  0  0  0
   -9.6719    0.7039    0.0000 C   0  0  0  0  0  0  0  0  0  0  0  0
   -8.8352    2.4413    0.0000 O   0  0  0  0  0  0  0  0  0  0  0  0
  -10.3278    2.5907    0.0000 C   0  0  0  0  0  0  0  0  0  0  0  0
   -8.1062   -0.4217    0.0000 C   0  0  0  0  0  0  0  0  0  0  0  0
   -9.3456   -1.2667    0.0000 O   0  0  0  0  0  0  0  0  0  0  0  0
   -6.7548   -1.0725    0.0000 C   0  0  0  0  0  0  0  0  0  0  0  0
   -6.6427   -2.5684    0.0000 C   0  0  0  0  0  0  0  0  0  0  0  0
   -5.5154   -0.2276    0.0000 O   0  0  0  0  0  0  0  0  0  0  0  0
   -2.1015    2.6351    0.0000 C   0  0  0  0  0  0  0  0  0  0  0  0
   -3.0367    3.8079    0.0000 C   0  0  0  0  0  0  0  0  0  0  0  0
   -0.7500    3.2860    0.0000 C   0  0  0  0  0  0  0  0  0  0  0  0
   -1.0838    4.7484    0.0000 O   0  0  0  0  0  0  0  0  0  0  0  0
    0.0158    5.7686    0.0000 C   0  0  0  0  0  0  0  0  0  0  0  0
    1.4492    5.3265    0.0000 O   0  0  0  0  0  0  0  0  0  0  0  0
    2.5487    6.3467    0.0000 C   0  0  0  0  0  0  0  0  0  0  0  0
    3.9821    5.9046    0.0000 C   0  0  0  0  0  0  0  0  0  0  0  0
    2.2150    7.8091    0.0000 C   0  0  0  0  0  0  0  0  0  0  0  0
    0.7816    8.2513    0.0000 C   0  0  0  0  0  0  0  0  0  0  0  0
    0.4478    9.7137    0.0000 N   0  0  0  0  0  0  0  0  0  0  0  0
    1.5474   10.7339    0.0000 C   0  0  0  0  0  0  0  0  0  0  0  0
   -0.9855   10.1558    0.0000 C   0  0  0  0  0  0  0  0  0  0  0  0
   -0.3180    7.2310    0.0000 C   0  0  0  0  0  0  0  0  0  0  0  0
   -1.7513    7.6731    0.0000 O   0  0  0  0  0  0  0  0  0  0  0  0
    0.7500    3.2860    0.0000 C   0  0  0  0  0  0  0  0  0  0  0  0
    0.2020    4.6823    0.0000 C   0  0  0  0  0  0  0  0  0  0  0  0
    1.8496    4.3062    0.0000 O   0  0  0  0  0  0  0  0  0  0  0  0
    2.1015    2.6351    0.0000 C   0  0  0  0  0  0  0  0  0  0  0  0
    3.0367    1.4624    0.0000 C   0  0  0  0  0  0  0  0  0  0  0  0
    4.3881    2.1132    0.0000 C   0  0  0  0  0  0  0  0  0  0  0  0
  1  2  1  0
  2  3  1  0
  3  4  1  0
  4  5  1  0
  5  6  1  0
  6  7  1  0
  7  8  1  0
  8  9  1  0
 10  9  1  6
 10 11  1  0
 11 12  1  6
 11 13  1  0
 13 14  1  1
 13 15  1  0
 15 16  1  1
 15 17  1  0
 15 18  1  0
 18 19  1  1
 19 20  1  0
 18 21  1  0
 21 22  1  0
 22 23  2  0
 22 24  1  0
 24 25  1  6
 24 26  1  0
 26 27  1  1
 27 28  1  0
 28 29  1  0
 29 30  1  0
 30 31  1  0
 30 32  1  0
 32 33  1  0
 30 34  1  0
 34 35  1  0
 34 36  1  0
 36 37  1  0
 36 38  1  0
 26 39  1  0
 39 40  1  6
 39 41  1  0
 41 42  1  1
 42 43  1  0
 43 44  1  0
 44 45  1  0
 45 46  1  0
 45 47  1  0
 47 48  1  0
 48 49  1  0
 49 50  1  0
 49 51  1  0
 48 52  1  0
 52 53  1  0
 41 54  1  0
 54 55  1  1
 54 56  1  0
 54 57  1  0
 57 58  1  0
 58 59  1  1
 58 10  1  0
 38 28  1  0
 52 43  1  0
M  END
>  <ChEMBL_IDs>  (596) 
CHEMBL107080

>  <target_organism>  (596) 
nan

>  <target_molecule_pref_name>  (596) 
nan

>  <# Known Targets>  (596) 
nan

>  <Known Targets>  (596) 
nan

>  <smiles>  (596) 
CCCCCCCCN[C@@H]1[C@H](C)[C@@H](O)[C@](C)(O)[C@@H](CC)OC(=O)[C@H](C)[C@@H](OC2CC(C)(OC)C(O)C(C)O2)[C@H](C)[C@@H](OC2OC(C)CC(N(C)C)C2O)[C@](C)(O)C[C@H]1C

$$$$

     RDKit          2D

 64 66  0  0  0  0  0  0  0  0999 V2000
   -5.5769  -11.7506    0.0000 C   0  0  0  0  0  0  0  0  0  0  0  0
   -4.1911  -12.3247    0.0000 C   0  0  0  0  0  0  0  0  0  0  0  0
   -3.0011  -11.4115    0.0000 C   0  0  0  0  0  0  0  0  0  0  0  0
   -1.6153  -11.9856    0.0000 C   0  0  0  0  0  0  0  0  0  0  0  0
   -0.4252  -11.0724    0.0000 C   0  0  0  0  0  0  0  0  0  0  0  0
   -0.6210   -9.5852    0.0000 O   0  0  0  0  0  0  0  0  0  0  0  0
    0.9606  -11.6464    0.0000 O   0  0  0  0  0  0  0  0  0  0  0  0
    2.1506  -10.7333    0.0000 C   0  0  0  0  0  0  0  0  0  0  0  0
    1.9548   -9.2461    0.0000 C   0  0  0  0  0  0  0  0  0  0  0  0
    0.5690   -8.6721    0.0000 C   0  0  0  0  0  0  0  0  0  0  0  0
    3.1449   -8.3330    0.0000 O   0  0  0  0  0  0  0  0  0  0  0  0
    4.5307   -8.9070    0.0000 C   0  0  0  0  0  0  0  0  0  0  0  0
    5.7207   -7.9939    0.0000 O   0  0  0  0  0  0  0  0  0  0  0  0
    5.5249   -6.5067    0.0000 C   0  0  0  0  0  0  0  0  0  0  0  0
    6.7150   -5.5936    0.0000 C   0  0  0  0  0  0  0  0  0  0  0  0
    8.1008   -6.1676    0.0000 C   0  0  0  0  0  0  0  0  0  0  0  0
    6.5192   -4.1064    0.0000 O   0  0  0  0  0  0  0  0  0  0  0  0
    5.1333   -3.5324    0.0000 C   0  0  0  0  0  0  0  0  0  0  0  0
    4.9376   -2.0452    0.0000 O   0  0  0  0  0  0  0  0  0  0  0  0
    6.1276   -1.1321    0.0000 C   0  0  0  0  0  0  0  0  0  0  0  0
    7.2553   -2.1211    0.0000 C   0  0  0  0  0  0  0  0  0  0  0  0
    6.5053   -3.4201    0.0000 C   0  0  0  0  0  0  0  0  0  0  0  0
    5.0053   -3.4201    0.0000 C   0  0  0  0  0  0  0  0  0  0  0  0
    3.9633   -4.4991    0.0000 O   0  0  0  0  0  0  0  0  0  0  0  0
    8.6757   -2.6032    0.0000 C   0  0  0  0  0  0  0  0  0  0  0  0
   10.1725   -2.5051    0.0000 C   0  0  0  0  0  0  0  0  0  0  0  0
   10.5608   -3.9540    0.0000 C   0  0  0  0  0  0  0  0  0  0  0  0
   11.5178   -1.8417    0.0000 C   0  0  0  0  0  0  0  0  0  0  0  0
   12.4310   -3.0317    0.0000 O   0  0  0  0  0  0  0  0  0  0  0  0
   13.9181   -2.8359    0.0000 C   0  0  0  0  0  0  0  0  0  0  0  0
   14.8313   -4.0260    0.0000 C   0  0  0  0  0  0  0  0  0  0  0  0
   14.4922   -1.4501    0.0000 O   0  0  0  0  0  0  0  0  0  0  0  0
   12.5069   -0.7139    0.0000 C   0  0  0  0  0  0  0  0  0  0  0  0
   12.9890    0.7065    0.0000 C   0  0  0  0  0  0  0  0  0  0  0  0
   12.8909    2.2032    0.0000 C   0  0  0  0  0  0  0  0  0  0  0  0
   12.2275    3.5486    0.0000 C   0  0  0  0  0  0  0  0  0  0  0  0
   11.0997    4.5376    0.0000 C   0  0  0  0  0  0  0  0  0  0  0  0
    9.6793    5.0197    0.0000 C   0  0  0  0  0  0  0  0  0  0  0  0
    9.8751    6.5069    0.0000 C   0  0  0  0  0  0  0  0  0  0  0  0
    8.1825    4.9216    0.0000 O   0  0  0  0  0  0  0  0  0  0  0  0
    6.8372    4.2582    0.0000 C   0  0  0  0  0  0  0  0  0  0  0  0
    5.9241    5.4482    0.0000 O   0  0  0  0  0  0  0  0  0  0  0  0
    5.8482    3.1304    0.0000 C   0  0  0  0  0  0  0  0  0  0  0  0
    5.3660    1.7100    0.0000 C   0  0  0  0  0  0  0  0  0  0  0  0
    3.8789    1.9058    0.0000 O   0  0  0  0  0  0  0  0  0  0  0  0
    5.4642    0.2132    0.0000 C   0  0  0  0  0  0  0  0  0  0  0  0
    4.0153   -0.1750    0.0000 O   0  0  0  0  0  0  0  0  0  0  0  0
    2.9546    0.8857    0.0000 C   0  0  0  0  0  0  0  0  0  0  0  0
    3.9433   -4.4455    0.0000 C   0  0  0  0  0  0  0  0  0  0  0  0
    2.5575   -3.8715    0.0000 O   0  0  0  0  0  0  0  0  0  0  0  0
    2.3617   -2.3843    0.0000 C   0  0  0  0  0  0  0  0  0  0  0  0
    0.9759   -1.8103    0.0000 C   0  0  0  0  0  0  0  0  0  0  0  0
    3.5517   -1.4712    0.0000 O   0  0  0  0  0  0  0  0  0  0  0  0
    4.1391   -5.9327    0.0000 C   0  0  0  0  0  0  0  0  0  0  0  0
    2.9491   -6.8458    0.0000 N   0  0  0  0  0  0  0  0  0  0  0  0
    2.7792   -8.3362    0.0000 C   0  0  0  0  0  0  0  0  0  0  0  0
    1.5633   -6.2718    0.0000 C   0  0  0  0  0  0  0  0  0  0  0  0
    4.7265  -10.3942    0.0000 C   0  0  0  0  0  0  0  0  0  0  0  0
    3.5364  -11.3073    0.0000 C   0  0  0  0  0  0  0  0  0  0  0  0
    4.6424  -12.3207    0.0000 C   0  0  0  0  0  0  0  0  0  0  0  0
    2.7305  -12.5724    0.0000 O   0  0  0  0  0  0  0  0  0  0  0  0
    3.4231  -13.9029    0.0000 C   0  0  0  0  0  0  0  0  0  0  0  0
    2.6172  -15.1680    0.0000 C   0  0  0  0  0  0  0  0  0  0  0  0
    4.9217  -13.9684    0.0000 O   0  0  0  0  0  0  0  0  0  0  0  0
  1  2  1  0
  2  3  1  0
  3  4  1  0
  4  5  1  0
  5  6  2  0
  5  7  1  0
  7  8  1  0
  8  9  1  0
  9 10  1  0
  9 11  1  0
 11 12  1  0
 12 13  1  0
 13 14  1  0
 14 15  1  0
 15 16  1  0
 15 17  1  0
 17 18  1  0
 18 19  1  0
 19 20  1  0
 20 21  1  0
 21 22  1  0
 22 23  1  0
 23 24  2  0
 21 25  1  0
 25 26  1  0
 26 27  1  0
 26 28  1  0
 28 29  1  0
 29 30  1  0
 30 31  1  0
 30 32  2  0
 28 33  1  0
 33 34  2  0
 34 35  1  0
 35 36  2  0
 36 37  1  0
 37 38  1  0
 38 39  1  0
 38 40  1  0
 40 41  1  0
 41 42  2  0
 41 43  1  0
 43 44  1  0
 44 45  1  0
 44 46  1  0
 46 47  1  0
 47 48  1  0
 18 49  1  0
 49 50  1  0
 50 51  1  0
 51 52  1  0
 51 53  2  0
 49 54  1  0
 54 55  1  0
 55 56  1  0
 55 57  1  0
 12 58  1  0
 58 59  1  0
 59 60  1  0
 59 61  1  0
 61 62  1  0
 62 63  1  0
 62 64  2  0
 59  8  1  0
 54 14  1  0
 46 20  1  0
M  END
>  <ChEMBL_IDs>  (597) 
nan

>  <target_organism>  (597) 
nan

>  <target_molecule_pref_name>  (597) 
nan

>  <# Known Targets>  (597) 
nan

>  <Known Targets>  (597) 
nan

>  <smiles>  (597) 
CCCCC(=O)OC1C(C)OC(OC2C(C)OC(OC3C(CC=O)CC(C)C(OC(C)=O)/C=C\C=C/CC(C)OC(=O)CC(O)C3OC)C(OC(C)=O)C2N(C)C)CC1(C)OC(C)=O

$$$$

     RDKit          2D

 65 67  0  0  0  0  0  0  0  0999 V2000
    6.0944   -1.2990    0.0000 C   0  0  0  0  0  0  0  0  0  0  0  0
    5.3444    0.0000    0.0000 C   0  0  0  0  0  0  0  0  0  0  0  0
    3.8444    0.0000    0.0000 C   0  0  0  0  0  0  0  0  0  0  0  0
    3.5517   -1.4712    0.0000 O   0  0  0  0  0  0  0  0  0  0  0  0
    2.7184   -2.7184    0.0000 C   0  0  0  0  0  0  0  0  0  0  0  0
    3.7790   -3.7790    0.0000 O   0  0  0  0  0  0  0  0  0  0  0  0
    1.4712   -3.5517    0.0000 C   0  0  0  0  0  0  0  0  0  0  0  0
   -0.0000   -3.8444    0.0000 C   0  0  0  0  0  0  0  0  0  0  0  0
   -0.0000   -5.3444    0.0000 O   0  0  0  0  0  0  0  0  0  0  0  0
   -1.4712   -3.5517    0.0000 C   0  0  0  0  0  0  0  0  0  0  0  0
   -1.6507   -4.7534    0.0000 C   0  0  0  0  0  0  0  0  0  0  0  0
   -2.7184   -2.7184    0.0000 C   0  0  0  0  0  0  0  0  0  0  0  0
   -3.7790   -3.7790    0.0000 O   0  0  0  0  0  0  0  0  0  0  0  0
   -3.3908   -5.2279    0.0000 C   0  0  0  0  0  0  0  0  0  0  0  0
   -1.9419   -5.6162    0.0000 O   0  0  0  0  0  0  0  0  0  0  0  0
   -1.5537   -7.0650    0.0000 C   0  0  0  0  0  0  0  0  0  0  0  0
   -0.1048   -7.4533    0.0000 C   0  0  0  0  0  0  0  0  0  0  0  0
   -2.6144   -8.1257    0.0000 C   0  0  0  0  0  0  0  0  0  0  0  0
   -2.2261   -9.5746    0.0000 O   0  0  0  0  0  0  0  0  0  0  0  0
   -0.7772   -9.9628    0.0000 C   0  0  0  0  0  0  0  0  0  0  0  0
   -0.3890  -11.4117    0.0000 C   0  0  0  0  0  0  0  0  0  0  0  0
    0.2834   -8.9022    0.0000 O   0  0  0  0  0  0  0  0  0  0  0  0
   -4.0632   -7.7375    0.0000 C   0  0  0  0  0  0  0  0  0  0  0  0
   -5.1239   -8.7981    0.0000 N   0  0  0  0  0  0  0  0  0  0  0  0
   -4.7357  -10.2470    0.0000 C   0  0  0  0  0  0  0  0  0  0  0  0
   -6.5728   -8.4099    0.0000 C   0  0  0  0  0  0  0  0  0  0  0  0
   -7.6335   -9.4706    0.0000 C   0  0  0  0  0  0  0  0  0  0  0  0
   -6.9610   -6.9610    0.0000 O   0  0  0  0  0  0  0  0  0  0  0  0
   -4.4515   -6.2886    0.0000 C   0  0  0  0  0  0  0  0  0  0  0  0
   -5.9004   -5.9004    0.0000 O   0  0  0  0  0  0  0  0  0  0  0  0
   -6.2886   -4.4515    0.0000 C   0  0  0  0  0  0  0  0  0  0  0  0
   -7.7375   -4.0632    0.0000 C   0  0  0  0  0  0  0  0  0  0  0  0
   -5.2279   -3.3908    0.0000 O   0  0  0  0  0  0  0  0  0  0  0  0
   -3.5517   -1.4712    0.0000 C   0  0  0  0  0  0  0  0  0  0  0  0
   -4.9376   -2.0452    0.0000 C   0  0  0  0  0  0  0  0  0  0  0  0
   -6.1276   -1.1321    0.0000 C   0  0  0  0  0  0  0  0  0  0  0  0
   -7.5134   -1.7061    0.0000 O   0  0  0  0  0  0  0  0  0  0  0  0
   -8.7034   -0.7929    0.0000 C   0  0  0  0  0  0  0  0  0  0  0  0
   -5.9318    0.3551    0.0000 O   0  0  0  0  0  0  0  0  0  0  0  0
   -7.1218    1.2682    0.0000 C   0  0  0  0  0  0  0  0  0  0  0  0
   -3.8444    0.0000    0.0000 C   0  0  0  0  0  0  0  0  0  0  0  0
   -3.5517    1.4712    0.0000 C   0  0  0  0  0  0  0  0  0  0  0  0
   -4.9376    2.0452    0.0000 C   0  0  0  0  0  0  0  0  0  0  0  0
   -2.7184    2.7184    0.0000 C   0  0  0  0  0  0  0  0  0  0  0  0
   -3.7790    3.7790    0.0000 O   0  0  0  0  0  0  0  0  0  0  0  0
   -1.4712    3.5517    0.0000 C   0  0  0  0  0  0  0  0  0  0  0  0
    0.0000    3.8444    0.0000 C   0  0  0  0  0  0  0  0  0  0  0  0
    1.4712    3.5517    0.0000 C   0  0  0  0  0  0  0  0  0  0  0  0
    2.0452    4.9376    0.0000 C   0  0  0  0  0  0  0  0  0  0  0  0
    2.7184    2.7184    0.0000 C   0  0  0  0  0  0  0  0  0  0  0  0
    3.5517    1.4712    0.0000 C   0  0  0  0  0  0  0  0  0  0  0  0
    4.9376    2.0452    0.0000 C   0  0  0  0  0  0  0  0  0  0  0  0
    6.1276    1.1321    0.0000 O   0  0  0  0  0  0  0  0  0  0  0  0
    7.5134    1.7061    0.0000 C   0  0  0  0  0  0  0  0  0  0  0  0
    8.7034    0.7929    0.0000 O   0  0  0  0  0  0  0  0  0  0  0  0
   10.0893    1.3670    0.0000 C   0  0  0  0  0  0  0  0  0  0  0  0
   11.2793    0.4538    0.0000 C   0  0  0  0  0  0  0  0  0  0  0  0
   10.2850    2.8541    0.0000 C   0  0  0  0  0  0  0  0  0  0  0  0
   11.6709    3.4282    0.0000 O   0  0  0  0  0  0  0  0  0  0  0  0
    9.0950    3.7673    0.0000 C   0  0  0  0  0  0  0  0  0  0  0  0
    9.2908    5.2544    0.0000 O   0  0  0  0  0  0  0  0  0  0  0  0
    8.1008    6.1676    0.0000 C   0  0  0  0  0  0  0  0  0  0  0  0
    7.7092    3.1933    0.0000 C   0  0  0  0  0  0  0  0  0  0  0  0
    6.5192    4.1064    0.0000 O   0  0  0  0  0  0  0  0  0  0  0  0
    6.7150    5.5936    0.0000 C   0  0  0  0  0  0  0  0  0  0  0  0
  1  2  1  0
  3  2  1  1
  3  4  1  0
  4  5  1  0
  5  6  2  0
  5  7  1  0
  7  8  1  0
  8  9  1  1
  8 10  1  0
 10 11  1  6
 10 12  1  0
 12 13  1  1
 13 14  1  0
 14 15  1  0
 15 16  1  0
 16 17  1  0
 16 18  1  0
 18 19  1  0
 19 20  1  0
 20 21  1  0
 20 22  2  0
 18 23  1  0
 23 24  1  0
 24 25  1  0
 24 26  1  0
 26 27  1  0
 26 28  2  0
 23 29  1  0
 29 30  1  0
 30 31  1  0
 31 32  1  0
 31 33  2  0
 12 34  1  0
 34 35  1  1
 35 36  1  0
 36 37  1  0
 37 38  1  0
 36 39  1  0
 39 40  1  0
 34 41  1  0
 41 42  1  0
 42 43  1  1
 42 44  1  0
 44 45  2  0
 44 46  1  0
 46 47  2  0
 47 48  1  0
 48 49  1  0
 48 50  2  0
 50 51  1  0
 51 52  1  6
 52 53  1  0
 53 54  1  0
 54 55  1  0
 55 56  1  0
 56 57  1  0
 56 58  1  0
 58 59  1  0
 58 60  1  0
 60 61  1  0
 61 62  1  0
 60 63  1  0
 63 64  1  0
 64 65  1  0
 51  3  1  0
 63 54  1  0
 29 14  1  0
M  END
>  <ChEMBL_IDs>  (598) 
CHEMBL137034

>  <target_organism>  (598) 
nan

>  <target_molecule_pref_name>  (598) 
nan

>  <# Known Targets>  (598) 
nan

>  <Known Targets>  (598) 
nan

>  <smiles>  (598) 
CC[C@H]1OC(=O)C[C@@H](O)[C@H](C)[C@@H](OC2OC(C)C(OC(C)=O)C(N(C)C(C)=O)C2OC(C)=O)[C@@H](CC(OC)OC)C[C@@H](C)C(=O)/C=C/C(C)=C/[C@@H]1COC1OC(C)C(O)C(OC)C1OC

$$$$

     RDKit          2D

 60 62  0  0  0  0  0  0  0  0999 V2000
    6.0944   -1.2990    0.0000 C   0  0  0  0  0  0  0  0  0  0  0  0
    5.3444    0.0000    0.0000 O   0  0  0  0  0  0  0  0  0  0  0  0
    3.8444    0.0000    0.0000 C   0  0  0  0  0  0  0  0  0  0  0  0
    3.5517   -1.4712    0.0000 C   0  0  0  0  0  0  0  0  0  0  0  0
    2.7184   -2.7184    0.0000 C   0  0  0  0  0  0  0  0  0  0  0  0
    3.7790   -3.7790    0.0000 C   0  0  0  0  0  0  0  0  0  0  0  0
    1.4712   -3.5517    0.0000 C   0  0  0  0  0  0  0  0  0  0  0  0
   -0.0000   -3.8444    0.0000 C   0  0  0  0  0  0  0  0  0  0  0  0
   -0.0000   -5.3444    0.0000 C   0  0  0  0  0  0  0  0  0  0  0  0
   -1.4712   -3.5517    0.0000 C   0  0  0  0  0  0  0  0  0  0  0  0
   -2.0452   -4.9376    0.0000 O   0  0  0  0  0  0  0  0  0  0  0  0
   -3.5324   -5.1333    0.0000 C   0  0  0  0  0  0  0  0  0  0  0  0
   -4.5838   -4.0635    0.0000 O   0  0  0  0  0  0  0  0  0  0  0  0
   -4.1064   -6.5192    0.0000 C   0  0  0  0  0  0  0  0  0  0  0  0
   -5.5936   -6.7150    0.0000 C   0  0  0  0  0  0  0  0  0  0  0  0
   -3.1933   -7.7092    0.0000 C   0  0  0  0  0  0  0  0  0  0  0  0
   -2.7184   -2.7184    0.0000 C   0  0  0  0  0  0  0  0  0  0  0  0
   -3.9004   -3.6418    0.0000 C   0  0  0  0  0  0  0  0  0  0  0  0
   -3.5517   -1.4712    0.0000 C   0  0  0  0  0  0  0  0  0  0  0  0
   -3.8444    0.0000    0.0000 C   0  0  0  0  0  0  0  0  0  0  0  0
   -5.3444    0.0000    0.0000 C   0  0  0  0  0  0  0  0  0  0  0  0
   -3.5517    1.4712    0.0000 C   0  0  0  0  0  0  0  0  0  0  0  0
   -2.7184    2.7184    0.0000 C   0  0  0  0  0  0  0  0  0  0  0  0
   -1.4712    3.5517    0.0000 C   0  0  0  0  0  0  0  0  0  0  0  0
    0.0000    3.8444    0.0000 C   0  0  0  0  0  0  0  0  0  0  0  0
    0.0000    5.3444    0.0000 O   0  0  0  0  0  0  0  0  0  0  0  0
    0.5734    5.8982    0.0000 C   0  0  0  0  0  0  0  0  0  0  0  0
    1.4712    3.5517    0.0000 C   0  0  0  0  0  0  0  0  0  0  0  0
    2.0452    4.9376    0.0000 C   0  0  0  0  0  0  0  0  0  0  0  0
    3.5324    5.1333    0.0000 C   0  0  0  0  0  0  0  0  0  0  0  0
    1.1321    6.1276    0.0000 C   0  0  0  0  0  0  0  0  0  0  0  0
   -0.3583    6.2975    0.0000 O   0  0  0  0  0  0  0  0  0  0  0  0
    1.7061    7.5134    0.0000 C   0  0  0  0  0  0  0  0  0  0  0  0
    0.7929    8.7034    0.0000 C   0  0  0  0  0  0  0  0  0  0  0  0
    3.1933    7.7092    0.0000 C   0  0  0  0  0  0  0  0  0  0  0  0
    3.1278    6.2106    0.0000 O   0  0  0  0  0  0  0  0  0  0  0  0
    2.7422    9.1398    0.0000 C   0  0  0  0  0  0  0  0  0  0  0  0
    3.7556   10.2457    0.0000 C   0  0  0  0  0  0  0  0  0  0  0  0
    3.3045   11.6763    0.0000 O   0  0  0  0  0  0  0  0  0  0  0  0
    4.3179   12.7822    0.0000 C   0  0  0  0  0  0  0  0  0  0  0  0
    5.7824   12.4575    0.0000 O   0  0  0  0  0  0  0  0  0  0  0  0
    6.7957   13.5634    0.0000 C   0  0  0  0  0  0  0  0  0  0  0  0
    8.2602   13.2388    0.0000 C   0  0  0  0  0  0  0  0  0  0  0  0
    6.3447   14.9940    0.0000 C   0  0  0  0  0  0  0  0  0  0  0  0
    7.3581   16.0999    0.0000 O   0  0  0  0  0  0  0  0  0  0  0  0
    4.8802   15.3187    0.0000 C   0  0  0  0  0  0  0  0  0  0  0  0
    4.4292   16.7492    0.0000 O   0  0  0  0  0  0  0  0  0  0  0  0
    3.8668   14.2128    0.0000 C   0  0  0  0  0  0  0  0  0  0  0  0
    2.4024   14.5374    0.0000 O   0  0  0  0  0  0  0  0  0  0  0  0
    1.9513   15.9680    0.0000 C   0  0  0  0  0  0  0  0  0  0  0  0
    5.2200    9.9210    0.0000 C   0  0  0  0  0  0  0  0  0  0  0  0
    6.2334   11.0269    0.0000 C   0  0  0  0  0  0  0  0  0  0  0  0
    5.6711    8.4905    0.0000 C   0  0  0  0  0  0  0  0  0  0  0  0
    7.1355    8.1658    0.0000 C   0  0  0  0  0  0  0  0  0  0  0  0
    7.5866    6.7352    0.0000 C   0  0  0  0  0  0  0  0  0  0  0  0
    8.1489    9.2717    0.0000 C   0  0  0  0  0  0  0  0  0  0  0  0
    4.6577    7.3845    0.0000 O   0  0  0  0  0  0  0  0  0  0  0  0
    2.7184    2.7184    0.0000 O   0  0  0  0  0  0  0  0  0  0  0  0
    3.5517    1.4712    0.0000 C   0  0  0  0  0  0  0  0  0  0  0  0
    4.9376    2.0452    0.0000 O   0  0  0  0  0  0  0  0  0  0  0  0
  1  2  1  0
  2  3  1  0
  3  4  2  0
  4  5  1  0
  5  6  1  0
  5  7  2  0
  7  8  1  0
  8  9  1  0
  8 10  1  0
 10 11  1  0
 11 12  1  0
 12 13  2  0
 12 14  1  0
 14 15  1  0
 14 16  1  0
 10 17  1  0
 17 18  1  0
 17 19  1  0
 19 20  1  0
 20 21  1  0
 20 22  2  0
 22 23  1  0
 23 24  2  0
 24 25  1  0
 25 26  1  0
 26 27  1  0
 25 28  1  0
 28 29  1  0
 29 30  1  0
 29 31  1  0
 31 32  1  0
 31 33  1  0
 33 34  1  0
 33 35  1  0
 35 36  1  0
 35 37  1  0
 37 38  1  0
 38 39  1  0
 39 40  1  0
 40 41  1  0
 41 42  1  0
 42 43  1  0
 42 44  1  0
 44 45  1  0
 44 46  1  0
 46 47  1  0
 46 48  1  0
 48 49  1  0
 49 50  1  0
 38 51  1  0
 51 52  1  0
 51 53  1  0
 53 54  1  0
 54 55  1  0
 54 56  1  0
 53 57  1  0
 28 58  1  0
 58 59  1  0
 59 60  2  0
 59  3  1  0
 57 35  1  0
 48 40  1  0
M  END
>  <ChEMBL_IDs>  (599) 
nan

>  <target_organism>  (599) 
nan

>  <target_molecule_pref_name>  (599) 
nan

>  <# Known Targets>  (599) 
nan

>  <Known Targets>  (599) 
nan

>  <smiles>  (599) 
CO/C1=C/C(C)=C\C(C)C(OC(=O)C(C)C)C(C)C/C(C)=C\C=C/C(OC)C(C(C)C(O)C(C)C2(O)CC(OC3OC(C)C(O)C(O)C3OC)C(C)C(C(C)C)O2)OC1=O

$$$$

     RDKit          2D

 64 66  0  0  0  0  0  0  0  0999 V2000
   -0.7998  -19.8004    0.0000 C   0  0  0  0  0  0  0  0  0  0  0  0
   -0.9119  -18.3046    0.0000 C   0  0  0  0  0  0  0  0  0  0  0  0
    0.3275  -17.4596    0.0000 C   0  0  0  0  0  0  0  0  0  0  0  0
    0.2154  -15.9638    0.0000 N   0  0  0  0  0  0  0  0  0  0  0  0
    1.4547  -15.1188    0.0000 C   0  0  0  0  0  0  0  0  0  0  0  0
    2.8062  -15.7696    0.0000 O   0  0  0  0  0  0  0  0  0  0  0  0
    1.3426  -13.6230    0.0000 C   0  0  0  0  0  0  0  0  0  0  0  0
    2.5820  -12.7780    0.0000 C   0  0  0  0  0  0  0  0  0  0  0  0
    2.4699  -11.2822    0.0000 C   0  0  0  0  0  0  0  0  0  0  0  0
    3.7093  -10.4372    0.0000 N   0  0  0  0  0  0  0  0  0  0  0  0
    3.5972   -8.9414    0.0000 C   0  0  0  0  0  0  0  0  0  0  0  0
    2.2457   -8.2906    0.0000 O   0  0  0  0  0  0  0  0  0  0  0  0
    4.8365   -8.0964    0.0000 O   0  0  0  0  0  0  0  0  0  0  0  0
    4.7244   -6.6006    0.0000 C   0  0  0  0  0  0  0  0  0  0  0  0
    3.3730   -5.9498    0.0000 C   0  0  0  0  0  0  0  0  0  0  0  0
    2.1336   -6.7948    0.0000 C   0  0  0  0  0  0  0  0  0  0  0  0
    3.2609   -4.4540    0.0000 O   0  0  0  0  0  0  0  0  0  0  0  0
    4.5002   -3.6090    0.0000 C   0  0  0  0  0  0  0  0  0  0  0  0
    4.3881   -2.1132    0.0000 O   0  0  0  0  0  0  0  0  0  0  0  0
    3.0367   -1.4624    0.0000 C   0  0  0  0  0  0  0  0  0  0  0  0
    3.3705    0.0000    0.0000 C   0  0  0  0  0  0  0  0  0  0  0  0
    4.6804   -0.3267    0.0000 C   0  0  0  0  0  0  0  0  0  0  0  0
    3.0367    1.4624    0.0000 C   0  0  0  0  0  0  0  0  0  0  0  0
    4.3881    2.1132    0.0000 O   0  0  0  0  0  0  0  0  0  0  0  0
    5.6275    1.2682    0.0000 C   0  0  0  0  0  0  0  0  0  0  0  0
    5.5154   -0.2276    0.0000 O   0  0  0  0  0  0  0  0  0  0  0  0
    6.7548   -1.0725    0.0000 C   0  0  0  0  0  0  0  0  0  0  0  0
    6.6427   -2.5684    0.0000 C   0  0  0  0  0  0  0  0  0  0  0  0
    8.1062   -0.4217    0.0000 C   0  0  0  0  0  0  0  0  0  0  0  0
    8.2183    1.0741    0.0000 C   0  0  0  0  0  0  0  0  0  0  0  0
    9.5698    1.7249    0.0000 N   0  0  0  0  0  0  0  0  0  0  0  0
   10.8091    0.8799    0.0000 C   0  0  0  0  0  0  0  0  0  0  0  0
    9.6819    3.2207    0.0000 C   0  0  0  0  0  0  0  0  0  0  0  0
    6.9790    1.9191    0.0000 C   0  0  0  0  0  0  0  0  0  0  0  0
    7.0910    3.4149    0.0000 O   0  0  0  0  0  0  0  0  0  0  0  0
    2.1015    2.6351    0.0000 C   0  0  0  0  0  0  0  0  0  0  0  0
    2.2135    4.1309    0.0000 C   0  0  0  0  0  0  0  0  0  0  0  0
    3.5348    3.0773    0.0000 O   0  0  0  0  0  0  0  0  0  0  0  0
    3.8686    4.5397    0.0000 C   0  0  0  0  0  0  0  0  0  0  0  0
    0.7500    3.2860    0.0000 C   0  0  0  0  0  0  0  0  0  0  0  0
   -0.7500    3.2860    0.0000 C   0  0  0  0  0  0  0  0  0  0  0  0
   -1.0838    4.7484    0.0000 C   0  0  0  0  0  0  0  0  0  0  0  0
   -2.1015    2.6351    0.0000 C   0  0  0  0  0  0  0  0  0  0  0  0
   -3.0367    3.8079    0.0000 O   0  0  0  0  0  0  0  0  0  0  0  0
   -3.0367    1.4624    0.0000 C   0  0  0  0  0  0  0  0  0  0  0  0
   -4.3881    2.1132    0.0000 C   0  0  0  0  0  0  0  0  0  0  0  0
   -3.3705    0.0000    0.0000 C   0  0  0  0  0  0  0  0  0  0  0  0
   -4.8705    0.0000    0.0000 O   0  0  0  0  0  0  0  0  0  0  0  0
   -3.0367   -1.4624    0.0000 C   0  0  0  0  0  0  0  0  0  0  0  0
   -3.7867   -2.7614    0.0000 C   0  0  0  0  0  0  0  0  0  0  0  0
   -4.5199   -1.2388    0.0000 O   0  0  0  0  0  0  0  0  0  0  0  0
   -2.1015   -2.6351    0.0000 C   0  0  0  0  0  0  0  0  0  0  0  0
   -3.0367   -3.8079    0.0000 C   0  0  0  0  0  0  0  0  0  0  0  0
   -4.5199   -3.5843    0.0000 C   0  0  0  0  0  0  0  0  0  0  0  0
   -0.7500   -3.2860    0.0000 O   0  0  0  0  0  0  0  0  0  0  0  0
    0.7500   -3.2860    0.0000 C   0  0  0  0  0  0  0  0  0  0  0  0
    1.0838   -4.7484    0.0000 O   0  0  0  0  0  0  0  0  0  0  0  0
    2.1015   -2.6351    0.0000 C   0  0  0  0  0  0  0  0  0  0  0  0
    2.6628   -3.8629    0.0000 C   0  0  0  0  0  0  0  0  0  0  0  0
    5.8517   -4.2598    0.0000 C   0  0  0  0  0  0  0  0  0  0  0  0
    5.9638   -5.7557    0.0000 C   0  0  0  0  0  0  0  0  0  0  0  0
    7.4174   -5.3855    0.0000 C   0  0  0  0  0  0  0  0  0  0  0  0
    6.5807   -7.1229    0.0000 O   0  0  0  0  0  0  0  0  0  0  0  0
    8.0733   -7.2723    0.0000 C   0  0  0  0  0  0  0  0  0  0  0  0
  1  2  1  0
  2  3  1  0
  3  4  2  0
  4  5  1  0
  5  6  2  0
  5  7  1  0
  7  8  1  0
  8  9  1  0
  9 10  1  0
 10 11  1  0
 11 12  2  0
 11 13  1  0
 14 13  1  1
 14 15  1  0
 15 16  1  6
 15 17  1  0
 17 18  1  0
 18 19  1  1
 20 19  1  6
 20 21  1  0
 21 22  1  1
 21 23  1  0
 23 24  1  6
 25 24  1  1
 25 26  1  0
 26 27  1  0
 27 28  1  1
 27 29  1  0
 29 30  1  0
 30 31  1  1
 31 32  1  0
 31 33  1  0
 30 34  1  0
 34 35  1  6
 23 36  1  0
 36 37  1  6
 36 38  1  0
 38 39  1  0
 36 40  1  0
 40 41  1  0
 41 42  1  6
 41 43  1  0
 43 44  2  0
 43 45  1  0
 45 46  1  1
 45 47  1  0
 47 48  1  6
 47 49  1  0
 49 50  1  6
 49 51  1  0
 49 52  1  0
 52 53  1  6
 53 54  1  0
 52 55  1  0
 55 56  1  0
 56 57  2  0
 56 58  1  0
 58 59  1  1
 18 60  1  0
 60 61  1  0
 61 62  1  6
 61 63  1  0
 63 64  1  0
 61 14  1  0
 58 20  1  0
 34 25  1  0
M  END
>  <ChEMBL_IDs>  (600) 
CHEMBL1668169

>  <target_organism>  (600) 
None

>  <target_molecule_pref_name>  (600) 
nan

>  <# Known Targets>  (600) 
nan

>  <Known Targets>  (600) 
nan

>  <smiles>  (600) 
CC/C=N/C(=O)CCCNC(=O)O[C@H]1[C@H](C)O[C@@H](O[C@H]2[C@H](C)[C@@H](O[C@@H]3O[C@H](C)C[C@H](N(C)C)[C@H]3O)[C@](C)(OC)C[C@@H](C)C(=O)[C@H](C)[C@@H](O)[C@](C)(O)[C@@H](CC)OC(=O)[C@@H]2C)C[C@@]1(C)OC

$$$$

     RDKit          2D

 64 66  0  0  0  0  0  0  0  0999 V2000
   -0.7998  -19.8004    0.0000 C   0  0  0  0  0  0  0  0  0  0  0  0
   -0.9119  -18.3046    0.0000 C   0  0  0  0  0  0  0  0  0  0  0  0
    0.3275  -17.4596    0.0000 C   0  0  0  0  0  0  0  0  0  0  0  0
    0.2154  -15.9638    0.0000 N   0  0  0  0  0  0  0  0  0  0  0  0
    1.4547  -15.1188    0.0000 C   0  0  0  0  0  0  0  0  0  0  0  0
    2.8062  -15.7696    0.0000 O   0  0  0  0  0  0  0  0  0  0  0  0
    1.3426  -13.6230    0.0000 C   0  0  0  0  0  0  0  0  0  0  0  0
    2.5820  -12.7780    0.0000 C   0  0  0  0  0  0  0  0  0  0  0  0
    2.4699  -11.2822    0.0000 C   0  0  0  0  0  0  0  0  0  0  0  0
    3.7093  -10.4372    0.0000 N   0  0  0  0  0  0  0  0  0  0  0  0
    3.5972   -8.9414    0.0000 C   0  0  0  0  0  0  0  0  0  0  0  0
    2.2457   -8.2906    0.0000 O   0  0  0  0  0  0  0  0  0  0  0  0
    4.8365   -8.0964    0.0000 O   0  0  0  0  0  0  0  0  0  0  0  0
    4.7244   -6.6006    0.0000 C   0  0  0  0  0  0  0  0  0  0  0  0
    3.3730   -5.9498    0.0000 C   0  0  0  0  0  0  0  0  0  0  0  0
    2.1336   -6.7948    0.0000 C   0  0  0  0  0  0  0  0  0  0  0  0
    3.2609   -4.4540    0.0000 O   0  0  0  0  0  0  0  0  0  0  0  0
    4.5002   -3.6090    0.0000 C   0  0  0  0  0  0  0  0  0  0  0  0
    4.3881   -2.1132    0.0000 O   0  0  0  0  0  0  0  0  0  0  0  0
    3.0367   -1.4624    0.0000 C   0  0  0  0  0  0  0  0  0  0  0  0
    3.3705    0.0000    0.0000 C   0  0  0  0  0  0  0  0  0  0  0  0
    4.6804   -0.3267    0.0000 C   0  0  0  0  0  0  0  0  0  0  0  0
    3.0367    1.4624    0.0000 C   0  0  0  0  0  0  0  0  0  0  0  0
    4.3881    2.1132    0.0000 O   0  0  0  0  0  0  0  0  0  0  0  0
    5.6275    1.2682    0.0000 C   0  0  0  0  0  0  0  0  0  0  0  0
    5.5154   -0.2276    0.0000 O   0  0  0  0  0  0  0  0  0  0  0  0
    6.7548   -1.0725    0.0000 C   0  0  0  0  0  0  0  0  0  0  0  0
    6.6427   -2.5684    0.0000 C   0  0  0  0  0  0  0  0  0  0  0  0
    8.1062   -0.4217    0.0000 C   0  0  0  0  0  0  0  0  0  0  0  0
    8.2183    1.0741    0.0000 C   0  0  0  0  0  0  0  0  0  0  0  0
    9.5698    1.7249    0.0000 N   0  0  0  0  0  0  0  0  0  0  0  0
   10.8091    0.8799    0.0000 C   0  0  0  0  0  0  0  0  0  0  0  0
    9.6819    3.2207    0.0000 C   0  0  0  0  0  0  0  0  0  0  0  0
    6.9790    1.9191    0.0000 C   0  0  0  0  0  0  0  0  0  0  0  0
    7.0910    3.4149    0.0000 O   0  0  0  0  0  0  0  0  0  0  0  0
    2.1015    2.6351    0.0000 C   0  0  0  0  0  0  0  0  0  0  0  0
    2.2135    4.1309    0.0000 C   0  0  0  0  0  0  0  0  0  0  0  0
    3.5348    3.0773    0.0000 O   0  0  0  0  0  0  0  0  0  0  0  0
    3.8686    4.5397    0.0000 C   0  0  0  0  0  0  0  0  0  0  0  0
    0.7500    3.2860    0.0000 C   0  0  0  0  0  0  0  0  0  0  0  0
   -0.7500    3.2860    0.0000 C   0  0  0  0  0  0  0  0  0  0  0  0
   -1.0838    4.7484    0.0000 C   0  0  0  0  0  0  0  0  0  0  0  0
   -2.1015    2.6351    0.0000 C   0  0  0  0  0  0  0  0  0  0  0  0
   -3.0367    3.8079    0.0000 O   0  0  0  0  0  0  0  0  0  0  0  0
   -3.0367    1.4624    0.0000 C   0  0  0  0  0  0  0  0  0  0  0  0
   -4.3881    2.1132    0.0000 C   0  0  0  0  0  0  0  0  0  0  0  0
   -3.3705    0.0000    0.0000 C   0  0  0  0  0  0  0  0  0  0  0  0
   -4.8705    0.0000    0.0000 O   0  0  0  0  0  0  0  0  0  0  0  0
   -3.0367   -1.4624    0.0000 C   0  0  0  0  0  0  0  0  0  0  0  0
   -3.7867   -2.7614    0.0000 C   0  0  0  0  0  0  0  0  0  0  0  0
   -4.5199   -1.2388    0.0000 O   0  0  0  0  0  0  0  0  0  0  0  0
   -2.1015   -2.6351    0.0000 C   0  0  0  0  0  0  0  0  0  0  0  0
   -3.0367   -3.8079    0.0000 C   0  0  0  0  0  0  0  0  0  0  0  0
   -4.5199   -3.5843    0.0000 C   0  0  0  0  0  0  0  0  0  0  0  0
   -0.7500   -3.2860    0.0000 O   0  0  0  0  0  0  0  0  0  0  0  0
    0.7500   -3.2860    0.0000 C   0  0  0  0  0  0  0  0  0  0  0  0
    1.0838   -4.7484    0.0000 O   0  0  0  0  0  0  0  0  0  0  0  0
    2.1015   -2.6351    0.0000 C   0  0  0  0  0  0  0  0  0  0  0  0
    2.6628   -3.8629    0.0000 C   0  0  0  0  0  0  0  0  0  0  0  0
    5.8517   -4.2598    0.0000 C   0  0  0  0  0  0  0  0  0  0  0  0
    5.9638   -5.7557    0.0000 C   0  0  0  0  0  0  0  0  0  0  0  0
    7.4174   -5.3855    0.0000 C   0  0  0  0  0  0  0  0  0  0  0  0
    6.5807   -7.1229    0.0000 O   0  0  0  0  0  0  0  0  0  0  0  0
    8.0733   -7.2723    0.0000 C   0  0  0  0  0  0  0  0  0  0  0  0
  1  2  1  0
  2  3  1  0
  3  4  1  0
  4  5  1  0
  5  6  2  0
  5  7  1  0
  7  8  1  0
  8  9  1  0
  9 10  1  0
 10 11  1  0
 11 12  2  0
 11 13  1  0
 14 13  1  1
 14 15  1  0
 15 16  1  6
 15 17  1  0
 17 18  1  0
 18 19  1  1
 20 19  1  6
 20 21  1  0
 21 22  1  1
 21 23  1  0
 23 24  1  6
 25 24  1  1
 25 26  1  0
 26 27  1  0
 27 28  1  1
 27 29  1  0
 29 30  1  0
 30 31  1  1
 31 32  1  0
 31 33  1  0
 30 34  1  0
 34 35  1  6
 23 36  1  0
 36 37  1  6
 36 38  1  0
 38 39  1  0
 36 40  1  0
 40 41  1  0
 41 42  1  6
 41 43  1  0
 43 44  2  0
 43 45  1  0
 45 46  1  1
 45 47  1  0
 47 48  1  6
 47 49  1  0
 49 50  1  6
 49 51  1  0
 49 52  1  0
 52 53  1  6
 53 54  1  0
 52 55  1  0
 55 56  1  0
 56 57  2  0
 56 58  1  0
 58 59  1  1
 18 60  1  0
 60 61  1  0
 61 62  1  6
 61 63  1  0
 63 64  1  0
 61 14  1  0
 58 20  1  0
 34 25  1  0
M  END
>  <ChEMBL_IDs>  (601) 
CHEMBL1668168

>  <target_organism>  (601) 
None

>  <target_molecule_pref_name>  (601) 
nan

>  <# Known Targets>  (601) 
nan

>  <Known Targets>  (601) 
nan

>  <smiles>  (601) 
CCCNC(=O)CCCNC(=O)O[C@H]1[C@H](C)O[C@@H](O[C@H]2[C@H](C)[C@@H](O[C@@H]3O[C@H](C)C[C@H](N(C)C)[C@H]3O)[C@](C)(OC)C[C@@H](C)C(=O)[C@H](C)[C@@H](O)[C@](C)(O)[C@@H](CC)OC(=O)[C@@H]2C)C[C@@]1(C)OC

$$$$

     RDKit          2D

 64 66  0  0  0  0  0  0  0  0999 V2000
    5.6205   -1.2990    0.0000 C   0  0  0  0  0  0  0  0  0  0  0  0
    4.8705    0.0000    0.0000 C   0  0  0  0  0  0  0  0  0  0  0  0
    3.3705    0.0000    0.0000 C   0  0  0  0  0  0  0  0  0  0  0  0
    3.0367   -1.4624    0.0000 O   0  0  0  0  0  0  0  0  0  0  0  0
    2.1015   -2.6351    0.0000 C   0  0  0  0  0  0  0  0  0  0  0  0
    3.0367   -3.8079    0.0000 O   0  0  0  0  0  0  0  0  0  0  0  0
    0.7500   -3.2860    0.0000 C   0  0  0  0  0  0  0  0  0  0  0  0
    1.3600   -4.4903    0.0000 C   0  0  0  0  0  0  0  0  0  0  0  0
   -0.7500   -3.2860    0.0000 C   0  0  0  0  0  0  0  0  0  0  0  0
   -1.0838   -4.7484    0.0000 O   0  0  0  0  0  0  0  0  0  0  0  0
    0.0158   -5.7686    0.0000 C   0  0  0  0  0  0  0  0  0  0  0  0
   -0.3180   -7.2310    0.0000 C   0  0  0  0  0  0  0  0  0  0  0  0
    0.7816   -8.2513    0.0000 C   0  0  0  0  0  0  0  0  0  0  0  0
    1.4659   -9.5861    0.0000 C   0  0  0  0  0  0  0  0  0  0  0  0
   -0.4141   -9.1570    0.0000 O   0  0  0  0  0  0  0  0  0  0  0  0
   -0.2276  -10.6453    0.0000 C   0  0  0  0  0  0  0  0  0  0  0  0
    2.2150   -7.8091    0.0000 C   0  0  0  0  0  0  0  0  0  0  0  0
    3.3145   -8.8294    0.0000 O   0  0  0  0  0  0  0  0  0  0  0  0
    4.7479   -8.3873    0.0000 C   0  0  0  0  0  0  0  0  0  0  0  0
    5.0817   -6.9249    0.0000 O   0  0  0  0  0  0  0  0  0  0  0  0
    5.8475   -9.4075    0.0000 N   0  0  0  0  0  0  0  0  0  0  0  0
    7.2808   -8.9654    0.0000 C   0  0  0  0  0  0  0  0  0  0  0  0
    8.3804   -9.9856    0.0000 C   0  0  0  0  0  0  0  0  0  0  0  0
    9.8138   -9.5435    0.0000 C   0  0  0  0  0  0  0  0  0  0  0  0
   10.9133  -10.5638    0.0000 C   0  0  0  0  0  0  0  0  0  0  0  0
   10.5796  -12.0262    0.0000 O   0  0  0  0  0  0  0  0  0  0  0  0
   12.3467  -10.1216    0.0000 N   0  0  0  0  0  0  0  0  0  0  0  0
   13.4463  -11.1419    0.0000 C   0  0  0  0  0  0  0  0  0  0  0  0
   14.8796  -10.6998    0.0000 C   0  0  0  0  0  0  0  0  0  0  0  0
   13.1125  -12.6043    0.0000 C   0  0  0  0  0  0  0  0  0  0  0  0
    2.5487   -6.3467    0.0000 C   0  0  0  0  0  0  0  0  0  0  0  0
    3.9821   -5.9046    0.0000 C   0  0  0  0  0  0  0  0  0  0  0  0
    1.4492   -5.3265    0.0000 O   0  0  0  0  0  0  0  0  0  0  0  0
   -2.1015   -2.6351    0.0000 C   0  0  0  0  0  0  0  0  0  0  0  0
   -3.0367   -3.8079    0.0000 C   0  0  0  0  0  0  0  0  0  0  0  0
   -3.0367   -1.4624    0.0000 C   0  0  0  0  0  0  0  0  0  0  0  0
   -4.3881   -2.1132    0.0000 O   0  0  0  0  0  0  0  0  0  0  0  0
   -5.6275   -1.2682    0.0000 C   0  0  0  0  0  0  0  0  0  0  0  0
   -5.5154    0.2276    0.0000 O   0  0  0  0  0  0  0  0  0  0  0  0
   -6.7548    1.0725    0.0000 C   0  0  0  0  0  0  0  0  0  0  0  0
   -6.6427    2.5684    0.0000 C   0  0  0  0  0  0  0  0  0  0  0  0
   -8.1062    0.4217    0.0000 C   0  0  0  0  0  0  0  0  0  0  0  0
   -8.2183   -1.0741    0.0000 C   0  0  0  0  0  0  0  0  0  0  0  0
   -9.5698   -1.7249    0.0000 N   0  0  0  0  0  0  0  0  0  0  0  0
  -10.8091   -0.8799    0.0000 C   0  0  0  0  0  0  0  0  0  0  0  0
   -9.6819   -3.2207    0.0000 C   0  0  0  0  0  0  0  0  0  0  0  0
   -6.9790   -1.9191    0.0000 C   0  0  0  0  0  0  0  0  0  0  0  0
   -7.0910   -3.4149    0.0000 O   0  0  0  0  0  0  0  0  0  0  0  0
   -3.3705    0.0000    0.0000 C   0  0  0  0  0  0  0  0  0  0  0  0
   -4.6098   -0.8450    0.0000 C   0  0  0  0  0  0  0  0  0  0  0  0
   -4.6098    0.8450    0.0000 O   0  0  0  0  0  0  0  0  0  0  0  0
   -5.3904    0.6832    0.0000 C   0  0  0  0  0  0  0  0  0  0  0  0
   -3.0367    1.4624    0.0000 C   0  0  0  0  0  0  0  0  0  0  0  0
   -2.1015    2.6351    0.0000 C   0  0  0  0  0  0  0  0  0  0  0  0
   -3.0367    3.8079    0.0000 C   0  0  0  0  0  0  0  0  0  0  0  0
   -0.7500    3.2860    0.0000 C   0  0  0  0  0  0  0  0  0  0  0  0
   -1.0838    4.7484    0.0000 O   0  0  0  0  0  0  0  0  0  0  0  0
    0.7500    3.2860    0.0000 C   0  0  0  0  0  0  0  0  0  0  0  0
    1.0838    4.7484    0.0000 C   0  0  0  0  0  0  0  0  0  0  0  0
    2.1015    2.6351    0.0000 C   0  0  0  0  0  0  0  0  0  0  0  0
    3.0367    3.8079    0.0000 O   0  0  0  0  0  0  0  0  0  0  0  0
    3.0367    1.4624    0.0000 C   0  0  0  0  0  0  0  0  0  0  0  0
    3.7867    2.7614    0.0000 C   0  0  0  0  0  0  0  0  0  0  0  0
    4.5199    1.2388    0.0000 O   0  0  0  0  0  0  0  0  0  0  0  0
  1  2  1  0
  3  2  1  1
  3  4  1  0
  4  5  1  0
  5  6  2  0
  5  7  1  0
  7  8  1  6
  7  9  1  0
  9 10  1  1
 11 10  1  6
 11 12  1  0
 12 13  1  0
 13 14  1  1
 13 15  1  0
 15 16  1  0
 13 17  1  0
 17 18  1  6
 18 19  1  0
 19 20  2  0
 19 21  1  0
 21 22  1  0
 22 23  1  0
 23 24  1  0
 24 25  1  0
 25 26  2  0
 25 27  1  0
 27 28  1  0
 28 29  1  0
 28 30  1  0
 17 31  1  0
 31 32  1  1
 31 33  1  0
  9 34  1  0
 34 35  1  6
 34 36  1  0
 36 37  1  1
 38 37  1  1
 38 39  1  0
 39 40  1  0
 40 41  1  1
 40 42  1  0
 42 43  1  0
 43 44  1  1
 44 45  1  0
 44 46  1  0
 43 47  1  0
 47 48  1  6
 36 49  1  0
 49 50  1  1
 49 51  1  0
 51 52  1  0
 49 53  1  0
 53 54  1  0
 54 55  1  1
 54 56  1  0
 56 57  2  0
 56 58  1  0
 58 59  1  6
 58 60  1  0
 60 61  1  1
 60 62  1  0
 62 63  1  1
 62 64  1  0
 62  3  1  0
 33 11  1  0
 47 38  1  0
M  END
>  <ChEMBL_IDs>  (602) 
CHEMBL1668167

>  <target_organism>  (602) 
None

>  <target_molecule_pref_name>  (602) 
nan

>  <# Known Targets>  (602) 
nan

>  <Known Targets>  (602) 
nan

>  <smiles>  (602) 
CC[C@H]1OC(=O)[C@H](C)[C@@H](O[C@H]2C[C@@](C)(OC)[C@@H](OC(=O)NCCCC(=O)NC(C)C)[C@H](C)O2)[C@H](C)[C@@H](O[C@@H]2O[C@H](C)C[C@H](N(C)C)[C@H]2O)[C@](C)(OC)C[C@@H](C)C(=O)[C@H](C)[C@@H](O)[C@]1(C)O

$$$$

     RDKit          2D

 61 63  0  0  0  0  0  0  0  0999 V2000
    5.6205   -1.2990    0.0000 C   0  0  0  0  0  0  0  0  0  0  0  0
    4.8705    0.0000    0.0000 C   0  0  0  0  0  0  0  0  0  0  0  0
    3.3705    0.0000    0.0000 C   0  0  0  0  0  0  0  0  0  0  0  0
    3.0367   -1.4624    0.0000 O   0  0  0  0  0  0  0  0  0  0  0  0
    2.1015   -2.6351    0.0000 C   0  0  0  0  0  0  0  0  0  0  0  0
    3.0367   -3.8079    0.0000 O   0  0  0  0  0  0  0  0  0  0  0  0
    0.7500   -3.2860    0.0000 C   0  0  0  0  0  0  0  0  0  0  0  0
    1.3600   -4.4903    0.0000 C   0  0  0  0  0  0  0  0  0  0  0  0
   -0.7500   -3.2860    0.0000 C   0  0  0  0  0  0  0  0  0  0  0  0
   -1.0838   -4.7484    0.0000 O   0  0  0  0  0  0  0  0  0  0  0  0
    0.0158   -5.7686    0.0000 C   0  0  0  0  0  0  0  0  0  0  0  0
   -0.3180   -7.2310    0.0000 C   0  0  0  0  0  0  0  0  0  0  0  0
    0.7816   -8.2513    0.0000 C   0  0  0  0  0  0  0  0  0  0  0  0
    1.4659   -9.5861    0.0000 C   0  0  0  0  0  0  0  0  0  0  0  0
   -0.4141   -9.1570    0.0000 O   0  0  0  0  0  0  0  0  0  0  0  0
   -0.2276  -10.6453    0.0000 C   0  0  0  0  0  0  0  0  0  0  0  0
    2.2150   -7.8091    0.0000 C   0  0  0  0  0  0  0  0  0  0  0  0
    3.3145   -8.8294    0.0000 O   0  0  0  0  0  0  0  0  0  0  0  0
    2.5487   -6.3467    0.0000 C   0  0  0  0  0  0  0  0  0  0  0  0
    3.9821   -5.9046    0.0000 C   0  0  0  0  0  0  0  0  0  0  0  0
    1.4492   -5.3265    0.0000 O   0  0  0  0  0  0  0  0  0  0  0  0
   -2.1015   -2.6351    0.0000 C   0  0  0  0  0  0  0  0  0  0  0  0
   -3.0367   -3.8079    0.0000 C   0  0  0  0  0  0  0  0  0  0  0  0
   -3.0367   -1.4624    0.0000 C   0  0  0  0  0  0  0  0  0  0  0  0
   -4.3881   -2.1132    0.0000 O   0  0  0  0  0  0  0  0  0  0  0  0
   -5.6275   -1.2682    0.0000 C   0  0  0  0  0  0  0  0  0  0  0  0
   -5.5154    0.2276    0.0000 O   0  0  0  0  0  0  0  0  0  0  0  0
   -6.7548    1.0725    0.0000 C   0  0  0  0  0  0  0  0  0  0  0  0
   -6.6427    2.5684    0.0000 C   0  0  0  0  0  0  0  0  0  0  0  0
   -8.1062    0.4217    0.0000 C   0  0  0  0  0  0  0  0  0  0  0  0
   -8.2183   -1.0741    0.0000 C   0  0  0  0  0  0  0  0  0  0  0  0
   -9.5698   -1.7249    0.0000 N   0  0  0  0  0  0  0  0  0  0  0  0
  -10.8091   -0.8799    0.0000 C   0  0  0  0  0  0  0  0  0  0  0  0
   -9.6819   -3.2207    0.0000 C   0  0  0  0  0  0  0  0  0  0  0  0
   -6.9790   -1.9191    0.0000 C   0  0  0  0  0  0  0  0  0  0  0  0
   -7.0910   -3.4149    0.0000 O   0  0  0  0  0  0  0  0  0  0  0  0
   -3.3705    0.0000    0.0000 C   0  0  0  0  0  0  0  0  0  0  0  0
   -4.6098   -0.8450    0.0000 C   0  0  0  0  0  0  0  0  0  0  0  0
   -4.6098    0.8450    0.0000 O   0  0  0  0  0  0  0  0  0  0  0  0
   -3.0367    1.4624    0.0000 C   0  0  0  0  0  0  0  0  0  0  0  0
   -2.1015    2.6351    0.0000 C   0  0  0  0  0  0  0  0  0  0  0  0
   -3.0367    3.8079    0.0000 C   0  0  0  0  0  0  0  0  0  0  0  0
   -0.7500    3.2860    0.0000 C   0  0  0  0  0  0  0  0  0  0  0  0
   -1.0838    4.7484    0.0000 N   0  0  0  0  0  0  0  0  0  0  0  0
    0.0158    5.7686    0.0000 C   0  0  0  0  0  0  0  0  0  0  0  0
   -0.3180    7.2310    0.0000 C   0  0  0  0  0  0  0  0  0  0  0  0
    1.4492    5.3265    0.0000 C   0  0  0  0  0  0  0  0  0  0  0  0
    2.5487    6.3467    0.0000 C   0  0  0  0  0  0  0  0  0  0  0  0
    3.9821    5.9046    0.0000 C   0  0  0  0  0  0  0  0  0  0  0  0
    5.0817    6.9249    0.0000 N   0  0  0  0  0  0  0  0  0  0  0  0
    6.5150    6.4827    0.0000 C   0  0  0  0  0  0  0  0  0  0  0  0
    7.6146    7.5030    0.0000 C   0  0  0  0  0  0  0  0  0  0  0  0
    4.7479    8.3873    0.0000 C   0  0  0  0  0  0  0  0  0  0  0  0
    5.8475    9.4075    0.0000 C   0  0  0  0  0  0  0  0  0  0  0  0
    0.7500    3.2860    0.0000 C   0  0  0  0  0  0  0  0  0  0  0  0
    1.4277    4.6241    0.0000 C   0  0  0  0  0  0  0  0  0  0  0  0
    2.1015    2.6351    0.0000 C   0  0  0  0  0  0  0  0  0  0  0  0
    3.0367    3.8079    0.0000 O   0  0  0  0  0  0  0  0  0  0  0  0
    3.0367    1.4624    0.0000 C   0  0  0  0  0  0  0  0  0  0  0  0
    3.7867    2.7614    0.0000 C   0  0  0  0  0  0  0  0  0  0  0  0
    4.5199    1.2388    0.0000 O   0  0  0  0  0  0  0  0  0  0  0  0
  1  2  1  0
  3  2  1  1
  3  4  1  0
  4  5  1  0
  5  6  2  0
  5  7  1  0
  7  8  1  6
  7  9  1  0
  9 10  1  1
 10 11  1  0
 11 12  1  0
 12 13  1  0
 13 14  1  0
 13 15  1  0
 15 16  1  0
 13 17  1  0
 17 18  1  0
 17 19  1  0
 19 20  1  0
 19 21  1  0
  9 22  1  0
 22 23  1  6
 22 24  1  0
 24 25  1  1
 25 26  1  0
 26 27  1  0
 27 28  1  0
 28 29  1  0
 28 30  1  0
 30 31  1  0
 31 32  1  0
 32 33  1  0
 32 34  1  0
 31 35  1  0
 35 36  1  0
 24 37  1  0
 37 38  1  1
 37 39  1  0
 37 40  1  0
 40 41  1  0
 41 42  1  1
 41 43  1  0
 43 44  1  6
 44 45  1  0
 45 46  1  0
 45 47  1  0
 47 48  1  0
 48 49  1  0
 49 50  1  0
 50 51  1  0
 51 52  1  0
 50 53  1  0
 53 54  1  0
 43 55  1  0
 55 56  1  6
 55 57  1  0
 57 58  1  1
 57 59  1  0
 59 60  1  1
 59 61  1  0
 59  3  1  0
 21 11  1  0
 35 26  1  0
M  END
>  <ChEMBL_IDs>  (603) 
CHEMBL318393

>  <target_organism>  (603) 
None

>  <target_molecule_pref_name>  (603) 
nan

>  <# Known Targets>  (603) 
nan

>  <Known Targets>  (603) 
nan

>  <smiles>  (603) 
CC[C@H]1OC(=O)[C@H](C)[C@@H](OC2CC(C)(OC)C(O)C(C)O2)[C@H](C)[C@@H](OC2OC(C)CC(N(C)C)C2O)[C@](C)(O)C[C@@H](C)[C@H](NC(C)CCCN(CC)CC)[C@H](C)[C@@H](O)[C@]1(C)O

$$$$

     RDKit          2D

 63 65  0  0  0  0  0  0  0  0999 V2000
   -4.5116   -5.0365    0.0000 C   0  0  0  0  0  0  0  0  0  0  0  0
   -3.2722   -4.1915    0.0000 C   0  0  0  0  0  0  0  0  0  0  0  0
   -1.9207   -4.8423    0.0000 C   0  0  0  0  0  0  0  0  0  0  0  0
   -0.6814   -3.9973    0.0000 C   0  0  0  0  0  0  0  0  0  0  0  0
    0.6701   -4.6482    0.0000 C   0  0  0  0  0  0  0  0  0  0  0  0
    0.5990   -6.1465    0.0000 O   0  0  0  0  0  0  0  0  0  0  0  0
    1.9094   -3.8032    0.0000 O   0  0  0  0  0  0  0  0  0  0  0  0
    3.2609   -4.4540    0.0000 C   0  0  0  0  0  0  0  0  0  0  0  0
    4.5002   -3.6090    0.0000 C   0  0  0  0  0  0  0  0  0  0  0  0
    4.3881   -2.1132    0.0000 O   0  0  0  0  0  0  0  0  0  0  0  0
    3.0367   -1.4624    0.0000 C   0  0  0  0  0  0  0  0  0  0  0  0
    3.3705    0.0000    0.0000 C   0  0  0  0  0  0  0  0  0  0  0  0
    4.8705    0.0000    0.0000 C   0  0  0  0  0  0  0  0  0  0  0  0
    3.0367    1.4624    0.0000 C   0  0  0  0  0  0  0  0  0  0  0  0
    4.3881    2.1132    0.0000 O   0  0  0  0  0  0  0  0  0  0  0  0
    4.5002    3.6090    0.0000 C   0  0  0  0  0  0  0  0  0  0  0  0
    5.8517    4.2598    0.0000 C   0  0  0  0  0  0  0  0  0  0  0  0
    5.9638    5.7557    0.0000 C   0  0  0  0  0  0  0  0  0  0  0  0
    6.5807    7.1229    0.0000 C   0  0  0  0  0  0  0  0  0  0  0  0
    7.4174    5.3855    0.0000 O   0  0  0  0  0  0  0  0  0  0  0  0
    7.8237    3.9416    0.0000 C   0  0  0  0  0  0  0  0  0  0  0  0
    4.7244    6.6006    0.0000 C   0  0  0  0  0  0  0  0  0  0  0  0
    4.8365    8.0964    0.0000 O   0  0  0  0  0  0  0  0  0  0  0  0
    3.3730    5.9498    0.0000 C   0  0  0  0  0  0  0  0  0  0  0  0
    2.1336    6.7948    0.0000 C   0  0  0  0  0  0  0  0  0  0  0  0
    3.2609    4.4540    0.0000 O   0  0  0  0  0  0  0  0  0  0  0  0
    2.1015    2.6351    0.0000 C   0  0  0  0  0  0  0  0  0  0  0  0
    2.6628    3.8629    0.0000 C   0  0  0  0  0  0  0  0  0  0  0  0
    0.7500    3.2860    0.0000 C   0  0  0  0  0  0  0  0  0  0  0  0
    1.0838    4.7484    0.0000 O   0  0  0  0  0  0  0  0  0  0  0  0
   -0.7500    3.2860    0.0000 O   0  0  0  0  0  0  0  0  0  0  0  0
   -2.1015    2.6351    0.0000 C   0  0  0  0  0  0  0  0  0  0  0  0
   -3.0367    3.8079    0.0000 C   0  0  0  0  0  0  0  0  0  0  0  0
   -2.4887    5.2042    0.0000 C   0  0  0  0  0  0  0  0  0  0  0  0
   -3.0367    1.4624    0.0000 C   0  0  0  0  0  0  0  0  0  0  0  0
   -4.5199    1.2388    0.0000 C   0  0  0  0  0  0  0  0  0  0  0  0
   -3.7867    2.7614    0.0000 O   0  0  0  0  0  0  0  0  0  0  0  0
   -3.3705    0.0000    0.0000 C   0  0  0  0  0  0  0  0  0  0  0  0
   -4.8705    0.0000    0.0000 O   0  0  0  0  0  0  0  0  0  0  0  0
   -5.6205    1.2990    0.0000 C   0  0  0  0  0  0  0  0  0  0  0  0
   -4.8705    2.5981    0.0000 O   0  0  0  0  0  0  0  0  0  0  0  0
   -7.1205    1.2990    0.0000 C   0  0  0  0  0  0  0  0  0  0  0  0
   -7.8705    2.5981    0.0000 C   0  0  0  0  0  0  0  0  0  0  0  0
   -9.3705    2.5981    0.0000 C   0  0  0  0  0  0  0  0  0  0  0  0
  -10.1205    3.8971    0.0000 C   0  0  0  0  0  0  0  0  0  0  0  0
   -3.0367   -1.4624    0.0000 C   0  0  0  0  0  0  0  0  0  0  0  0
   -4.3881   -2.1132    0.0000 C   0  0  0  0  0  0  0  0  0  0  0  0
   -2.1015   -2.6351    0.0000 C   0  0  0  0  0  0  0  0  0  0  0  0
   -3.0663   -3.3735    0.0000 O   0  0  0  0  0  0  0  0  0  0  0  0
   -0.7500   -3.2860    0.0000 C   0  0  0  0  0  0  0  0  0  0  0  0
   -1.0838   -4.7484    0.0000 C   0  0  0  0  0  0  0  0  0  0  0  0
    0.7500   -3.2860    0.0000 C   0  0  0  0  0  0  0  0  0  0  0  0
    2.1015   -2.6351    0.0000 C   0  0  0  0  0  0  0  0  0  0  0  0
    3.5348   -3.0773    0.0000 C   0  0  0  0  0  0  0  0  0  0  0  0
    1.9669   -3.4209    0.0000 O   0  0  0  0  0  0  0  0  0  0  0  0
    5.8517   -4.2598    0.0000 O   0  0  0  0  0  0  0  0  0  0  0  0
    5.9638   -5.7557    0.0000 C   0  0  0  0  0  0  0  0  0  0  0  0
    7.3152   -6.4065    0.0000 C   0  0  0  0  0  0  0  0  0  0  0  0
    4.7244   -6.6006    0.0000 C   0  0  0  0  0  0  0  0  0  0  0  0
    3.3730   -5.9498    0.0000 C   0  0  0  0  0  0  0  0  0  0  0  0
    2.1336   -6.7948    0.0000 N   0  0  0  0  0  0  0  0  0  0  0  0
    2.2457   -8.2906    0.0000 C   0  0  0  0  0  0  0  0  0  0  0  0
    0.7129   -6.3136    0.0000 C   0  0  0  0  0  0  0  0  0  0  0  0
  1  2  2  0
  2  3  1  0
  3  4  1  0
  4  5  1  0
  5  6  2  0
  5  7  1  0
  7  8  1  0
  8  9  1  0
  9 10  1  0
 10 11  1  0
 11 12  1  0
 12 13  1  0
 12 14  1  0
 14 15  1  0
 15 16  1  0
 16 17  1  0
 17 18  1  0
 18 19  1  0
 18 20  1  0
 20 21  1  0
 18 22  1  0
 22 23  1  0
 22 24  1  0
 24 25  1  0
 24 26  1  0
 14 27  1  0
 27 28  1  0
 27 29  1  0
 29 30  2  0
 29 31  1  0
 31 32  1  0
 32 33  1  0
 33 34  1  0
 32 35  1  0
 35 36  1  0
 35 37  1  0
 35 38  1  0
 38 39  1  0
 39 40  1  0
 40 41  2  0
 40 42  1  0
 42 43  1  0
 43 44  1  0
 44 45  2  0
 38 46  1  0
 46 47  1  0
 46 48  1  0
 48 49  2  0
 48 50  1  0
 50 51  1  0
 50 52  1  0
 52 53  1  0
 53 54  1  0
 53 55  1  0
  9 56  1  0
 56 57  1  0
 57 58  1  0
 57 59  1  0
 59 60  1  0
 60 61  1  0
 61 62  1  0
 61 63  1  0
 60  8  1  0
 53 11  1  0
 26 16  1  0
M  END
>  <ChEMBL_IDs>  (604) 
nan

>  <target_organism>  (604) 
nan

>  <target_molecule_pref_name>  (604) 
nan

>  <# Known Targets>  (604) 
nan

>  <Known Targets>  (604) 
nan

>  <smiles>  (604) 
C=CCCC(=O)OC1C(OC2C(C)C(OC3CC(C)(OC)C(O)C(C)O3)C(C)C(=O)OC(CC)C(C)(O)C(OC(=O)CCC=C)C(C)C(=O)C(C)CC2(C)O)OC(C)CC1N(C)C

$$$$

     RDKit          2D

 66 68  0  0  0  0  0  0  0  0999 V2000
    5.6205   -1.2990    0.0000 C   0  0  0  0  0  0  0  0  0  0  0  0
    4.8705    0.0000    0.0000 C   0  0  0  0  0  0  0  0  0  0  0  0
    3.3705    0.0000    0.0000 C   0  0  0  0  0  0  0  0  0  0  0  0
    3.0367   -1.4624    0.0000 O   0  0  0  0  0  0  0  0  0  0  0  0
    2.1015   -2.6351    0.0000 C   0  0  0  0  0  0  0  0  0  0  0  0
    3.0367   -3.8079    0.0000 O   0  0  0  0  0  0  0  0  0  0  0  0
    0.7500   -3.2860    0.0000 C   0  0  0  0  0  0  0  0  0  0  0  0
    1.3600   -4.4903    0.0000 C   0  0  0  0  0  0  0  0  0  0  0  0
   -0.7500   -3.2860    0.0000 C   0  0  0  0  0  0  0  0  0  0  0  0
   -1.0838   -4.7484    0.0000 O   0  0  0  0  0  0  0  0  0  0  0  0
    0.0158   -5.7686    0.0000 C   0  0  0  0  0  0  0  0  0  0  0  0
   -0.3180   -7.2310    0.0000 C   0  0  0  0  0  0  0  0  0  0  0  0
    0.7816   -8.2513    0.0000 C   0  0  0  0  0  0  0  0  0  0  0  0
    1.4659   -9.5861    0.0000 C   0  0  0  0  0  0  0  0  0  0  0  0
   -0.4141   -9.1570    0.0000 O   0  0  0  0  0  0  0  0  0  0  0  0
   -0.2276  -10.6453    0.0000 C   0  0  0  0  0  0  0  0  0  0  0  0
    2.2150   -7.8091    0.0000 C   0  0  0  0  0  0  0  0  0  0  0  0
    3.3145   -8.8294    0.0000 O   0  0  0  0  0  0  0  0  0  0  0  0
    2.5487   -6.3467    0.0000 C   0  0  0  0  0  0  0  0  0  0  0  0
    3.9821   -5.9046    0.0000 C   0  0  0  0  0  0  0  0  0  0  0  0
    1.4492   -5.3265    0.0000 O   0  0  0  0  0  0  0  0  0  0  0  0
   -2.1015   -2.6351    0.0000 C   0  0  0  0  0  0  0  0  0  0  0  0
   -3.0367   -3.8079    0.0000 C   0  0  0  0  0  0  0  0  0  0  0  0
   -3.0367   -1.4624    0.0000 C   0  0  0  0  0  0  0  0  0  0  0  0
   -4.3881   -2.1132    0.0000 O   0  0  0  0  0  0  0  0  0  0  0  0
   -5.6275   -1.2682    0.0000 C   0  0  0  0  0  0  0  0  0  0  0  0
   -5.5154    0.2276    0.0000 O   0  0  0  0  0  0  0  0  0  0  0  0
   -6.7548    1.0725    0.0000 C   0  0  0  0  0  0  0  0  0  0  0  0
   -6.6427    2.5684    0.0000 C   0  0  0  0  0  0  0  0  0  0  0  0
   -8.1062    0.4217    0.0000 C   0  0  0  0  0  0  0  0  0  0  0  0
   -8.2183   -1.0741    0.0000 C   0  0  0  0  0  0  0  0  0  0  0  0
   -9.5698   -1.7249    0.0000 N   0  0  0  0  0  0  0  0  0  0  0  0
  -10.8091   -0.8799    0.0000 C   0  0  0  0  0  0  0  0  0  0  0  0
   -9.7838   -2.7973    0.0000 C   0  0  0  0  0  0  0  0  0  0  0  0
   -6.9790   -1.9191    0.0000 C   0  0  0  0  0  0  0  0  0  0  0  0
   -7.0910   -3.4149    0.0000 O   0  0  0  0  0  0  0  0  0  0  0  0
   -8.4425   -4.0657    0.0000 C   0  0  0  0  0  0  0  0  0  0  0  0
   -8.5546   -5.5615    0.0000 C   0  0  0  0  0  0  0  0  0  0  0  0
   -9.4143   -3.5644    0.0000 O   0  0  0  0  0  0  0  0  0  0  0  0
   -3.3705    0.0000    0.0000 C   0  0  0  0  0  0  0  0  0  0  0  0
   -4.6098   -0.8450    0.0000 C   0  0  0  0  0  0  0  0  0  0  0  0
   -4.6098    0.8450    0.0000 O   0  0  0  0  0  0  0  0  0  0  0  0
   -3.0367    1.4624    0.0000 C   0  0  0  0  0  0  0  0  0  0  0  0
   -2.1015    2.6351    0.0000 C   0  0  0  0  0  0  0  0  0  0  0  0
   -3.0367    3.8079    0.0000 C   0  0  0  0  0  0  0  0  0  0  0  0
   -0.7500    3.2860    0.0000 C   0  0  0  0  0  0  0  0  0  0  0  0
   -1.0838    4.7484    0.0000 O   0  0  0  0  0  0  0  0  0  0  0  0
    0.7500    3.2860    0.0000 C   0  0  0  0  0  0  0  0  0  0  0  0
    1.0838    4.7484    0.0000 C   0  0  0  0  0  0  0  0  0  0  0  0
    2.1015    2.6351    0.0000 C   0  0  0  0  0  0  0  0  0  0  0  0
    3.0367    3.8079    0.0000 O   0  0  0  0  0  0  0  0  0  0  0  0
    4.5199    3.5843    0.0000 C   0  0  0  0  0  0  0  0  0  0  0  0
    5.0679    2.1880    0.0000 O   0  0  0  0  0  0  0  0  0  0  0  0
    5.4552    4.7571    0.0000 C   0  0  0  0  0  0  0  0  0  0  0  0
    6.9384    4.5335    0.0000 C   0  0  0  0  0  0  0  0  0  0  0  0
    7.8736    5.7063    0.0000 N   0  0  0  0  0  0  0  0  0  0  0  0
    9.3569    5.4827    0.0000 C   0  0  0  0  0  0  0  0  0  0  0  0
   10.2921    6.6554    0.0000 O   0  0  0  0  0  0  0  0  0  0  0  0
    9.9049    4.0864    0.0000 O   0  0  0  0  0  0  0  0  0  0  0  0
   11.3882    3.8628    0.0000 C   0  0  0  0  0  0  0  0  0  0  0  0
   11.1646    2.3796    0.0000 C   0  0  0  0  0  0  0  0  0  0  0  0
   11.6117    5.3461    0.0000 C   0  0  0  0  0  0  0  0  0  0  0  0
   12.8714    3.6393    0.0000 C   0  0  0  0  0  0  0  0  0  0  0  0
    3.0367    1.4624    0.0000 C   0  0  0  0  0  0  0  0  0  0  0  0
    3.7867    2.7614    0.0000 C   0  0  0  0  0  0  0  0  0  0  0  0
    4.5199    1.2388    0.0000 O   0  0  0  0  0  0  0  0  0  0  0  0
  1  2  1  0
  2  3  1  0
  3  4  1  0
  4  5  1  0
  5  6  2  0
  5  7  1  0
  7  8  1  0
  7  9  1  0
  9 10  1  0
 10 11  1  0
 11 12  1  0
 12 13  1  0
 13 14  1  0
 13 15  1  0
 15 16  1  0
 13 17  1  0
 17 18  1  0
 17 19  1  0
 19 20  1  0
 19 21  1  0
  9 22  1  0
 22 23  1  0
 22 24  1  0
 24 25  1  0
 25 26  1  0
 26 27  1  0
 27 28  1  0
 28 29  1  0
 28 30  1  0
 30 31  1  0
 31 32  1  0
 32 33  1  0
 32 34  1  0
 31 35  1  0
 35 36  1  0
 36 37  1  0
 37 38  1  0
 37 39  2  0
 24 40  1  0
 40 41  1  0
 40 42  1  0
 40 43  1  0
 43 44  1  0
 44 45  1  0
 44 46  1  0
 46 47  2  0
 46 48  1  0
 48 49  1  0
 48 50  1  0
 50 51  1  0
 51 52  1  0
 52 53  2  0
 52 54  1  0
 54 55  1  0
 55 56  1  0
 56 57  1  0
 57 58  2  0
 57 59  1  0
 59 60  1  0
 60 61  1  0
 60 62  1  0
 60 63  1  0
 50 64  1  0
 64 65  1  0
 64 66  1  0
 64  3  1  0
 21 11  1  0
 35 26  1  0
M  END
>  <ChEMBL_IDs>  (605) 
nan

>  <target_organism>  (605) 
nan

>  <target_molecule_pref_name>  (605) 
nan

>  <# Known Targets>  (605) 
nan

>  <Known Targets>  (605) 
nan

>  <smiles>  (605) 
CCC1OC(=O)C(C)C(OC2CC(C)(OC)C(O)C(C)O2)C(C)C(OC2OC(C)CC(N(C)C)C2OC(C)=O)C(C)(O)CC(C)C(=O)C(C)C(OC(=O)CCNC(=O)OC(C)(C)C)C1(C)O

$$$$

     RDKit          2D

 65 67  0  0  0  0  0  0  0  0999 V2000
   -2.0392  -20.6453    0.0000 C   0  0  0  0  0  0  0  0  0  0  0  0
   -0.7998  -19.8004    0.0000 C   0  0  0  0  0  0  0  0  0  0  0  0
   -0.9119  -18.3046    0.0000 C   0  0  0  0  0  0  0  0  0  0  0  0
    0.3275  -17.4596    0.0000 C   0  0  0  0  0  0  0  0  0  0  0  0
    0.2154  -15.9638    0.0000 N   0  0  0  0  0  0  0  0  0  0  0  0
    1.4547  -15.1188    0.0000 C   0  0  0  0  0  0  0  0  0  0  0  0
    2.8062  -15.7696    0.0000 O   0  0  0  0  0  0  0  0  0  0  0  0
    1.3426  -13.6230    0.0000 C   0  0  0  0  0  0  0  0  0  0  0  0
    2.5820  -12.7780    0.0000 C   0  0  0  0  0  0  0  0  0  0  0  0
    2.4699  -11.2822    0.0000 C   0  0  0  0  0  0  0  0  0  0  0  0
    3.7093  -10.4372    0.0000 N   0  0  0  0  0  0  0  0  0  0  0  0
    3.5972   -8.9414    0.0000 C   0  0  0  0  0  0  0  0  0  0  0  0
    2.2457   -8.2906    0.0000 O   0  0  0  0  0  0  0  0  0  0  0  0
    4.8365   -8.0964    0.0000 O   0  0  0  0  0  0  0  0  0  0  0  0
    4.7244   -6.6006    0.0000 C   0  0  0  0  0  0  0  0  0  0  0  0
    3.3730   -5.9498    0.0000 C   0  0  0  0  0  0  0  0  0  0  0  0
    2.1336   -6.7948    0.0000 C   0  0  0  0  0  0  0  0  0  0  0  0
    3.2609   -4.4540    0.0000 O   0  0  0  0  0  0  0  0  0  0  0  0
    4.5002   -3.6090    0.0000 C   0  0  0  0  0  0  0  0  0  0  0  0
    4.3881   -2.1132    0.0000 O   0  0  0  0  0  0  0  0  0  0  0  0
    3.0367   -1.4624    0.0000 C   0  0  0  0  0  0  0  0  0  0  0  0
    3.3705    0.0000    0.0000 C   0  0  0  0  0  0  0  0  0  0  0  0
    4.6804   -0.3267    0.0000 C   0  0  0  0  0  0  0  0  0  0  0  0
    3.0367    1.4624    0.0000 C   0  0  0  0  0  0  0  0  0  0  0  0
    4.3881    2.1132    0.0000 O   0  0  0  0  0  0  0  0  0  0  0  0
    5.6275    1.2682    0.0000 C   0  0  0  0  0  0  0  0  0  0  0  0
    5.5154   -0.2276    0.0000 O   0  0  0  0  0  0  0  0  0  0  0  0
    6.7548   -1.0725    0.0000 C   0  0  0  0  0  0  0  0  0  0  0  0
    6.6427   -2.5684    0.0000 C   0  0  0  0  0  0  0  0  0  0  0  0
    8.1062   -0.4217    0.0000 C   0  0  0  0  0  0  0  0  0  0  0  0
    8.2183    1.0741    0.0000 C   0  0  0  0  0  0  0  0  0  0  0  0
    9.5698    1.7249    0.0000 N   0  0  0  0  0  0  0  0  0  0  0  0
   10.8091    0.8799    0.0000 C   0  0  0  0  0  0  0  0  0  0  0  0
    9.6819    3.2207    0.0000 C   0  0  0  0  0  0  0  0  0  0  0  0
    6.9790    1.9191    0.0000 C   0  0  0  0  0  0  0  0  0  0  0  0
    7.0910    3.4149    0.0000 O   0  0  0  0  0  0  0  0  0  0  0  0
    2.1015    2.6351    0.0000 C   0  0  0  0  0  0  0  0  0  0  0  0
    2.2135    4.1309    0.0000 C   0  0  0  0  0  0  0  0  0  0  0  0
    3.5348    3.0773    0.0000 O   0  0  0  0  0  0  0  0  0  0  0  0
    3.8686    4.5397    0.0000 C   0  0  0  0  0  0  0  0  0  0  0  0
    0.7500    3.2860    0.0000 C   0  0  0  0  0  0  0  0  0  0  0  0
   -0.7500    3.2860    0.0000 C   0  0  0  0  0  0  0  0  0  0  0  0
   -1.0838    4.7484    0.0000 C   0  0  0  0  0  0  0  0  0  0  0  0
   -2.1015    2.6351    0.0000 C   0  0  0  0  0  0  0  0  0  0  0  0
   -3.0367    3.8079    0.0000 O   0  0  0  0  0  0  0  0  0  0  0  0
   -3.0367    1.4624    0.0000 C   0  0  0  0  0  0  0  0  0  0  0  0
   -4.3881    2.1132    0.0000 C   0  0  0  0  0  0  0  0  0  0  0  0
   -3.3705    0.0000    0.0000 C   0  0  0  0  0  0  0  0  0  0  0  0
   -4.8705    0.0000    0.0000 O   0  0  0  0  0  0  0  0  0  0  0  0
   -3.0367   -1.4624    0.0000 C   0  0  0  0  0  0  0  0  0  0  0  0
   -3.7867   -2.7614    0.0000 C   0  0  0  0  0  0  0  0  0  0  0  0
   -4.5199   -1.2388    0.0000 O   0  0  0  0  0  0  0  0  0  0  0  0
   -2.1015   -2.6351    0.0000 C   0  0  0  0  0  0  0  0  0  0  0  0
   -3.0367   -3.8079    0.0000 C   0  0  0  0  0  0  0  0  0  0  0  0
   -4.5199   -3.5843    0.0000 C   0  0  0  0  0  0  0  0  0  0  0  0
   -0.7500   -3.2860    0.0000 O   0  0  0  0  0  0  0  0  0  0  0  0
    0.7500   -3.2860    0.0000 C   0  0  0  0  0  0  0  0  0  0  0  0
    1.0838   -4.7484    0.0000 O   0  0  0  0  0  0  0  0  0  0  0  0
    2.1015   -2.6351    0.0000 C   0  0  0  0  0  0  0  0  0  0  0  0
    2.6628   -3.8629    0.0000 C   0  0  0  0  0  0  0  0  0  0  0  0
    5.8517   -4.2598    0.0000 C   0  0  0  0  0  0  0  0  0  0  0  0
    5.9638   -5.7557    0.0000 C   0  0  0  0  0  0  0  0  0  0  0  0
    7.4174   -5.3855    0.0000 C   0  0  0  0  0  0  0  0  0  0  0  0
    6.5807   -7.1229    0.0000 O   0  0  0  0  0  0  0  0  0  0  0  0
    8.0733   -7.2723    0.0000 C   0  0  0  0  0  0  0  0  0  0  0  0
  1  2  1  0
  2  3  1  0
  3  4  1  0
  4  5  1  0
  5  6  1  0
  6  7  2  0
  6  8  1  0
  8  9  1  0
  9 10  1  0
 10 11  1  0
 11 12  1  0
 12 13  2  0
 12 14  1  0
 15 14  1  1
 15 16  1  0
 16 17  1  6
 16 18  1  0
 18 19  1  0
 19 20  1  1
 21 20  1  6
 21 22  1  0
 22 23  1  1
 22 24  1  0
 24 25  1  6
 26 25  1  1
 26 27  1  0
 27 28  1  0
 28 29  1  1
 28 30  1  0
 30 31  1  0
 31 32  1  1
 32 33  1  0
 32 34  1  0
 31 35  1  0
 35 36  1  6
 24 37  1  0
 37 38  1  6
 37 39  1  0
 39 40  1  0
 37 41  1  0
 41 42  1  0
 42 43  1  6
 42 44  1  0
 44 45  2  0
 44 46  1  0
 46 47  1  1
 46 48  1  0
 48 49  1  6
 48 50  1  0
 50 51  1  6
 50 52  1  0
 50 53  1  0
 53 54  1  6
 54 55  1  0
 53 56  1  0
 56 57  1  0
 57 58  2  0
 57 59  1  0
 59 60  1  1
 19 61  1  0
 61 62  1  0
 62 63  1  6
 62 64  1  0
 64 65  1  0
 62 15  1  0
 59 21  1  0
 35 26  1  0
M  END
>  <ChEMBL_IDs>  (606) 
CHEMBL1668170

>  <target_organism>  (606) 
None

>  <target_molecule_pref_name>  (606) 
nan

>  <# Known Targets>  (606) 
nan

>  <Known Targets>  (606) 
nan

>  <smiles>  (606) 
CCCCNC(=O)CCCNC(=O)O[C@H]1[C@H](C)O[C@@H](O[C@H]2[C@H](C)[C@@H](O[C@@H]3O[C@H](C)C[C@H](N(C)C)[C@H]3O)[C@](C)(OC)C[C@@H](C)C(=O)[C@H](C)[C@@H](O)[C@](C)(O)[C@@H](CC)OC(=O)[C@@H]2C)C[C@@]1(C)OC

$$$$

     RDKit          2D

 63 65  0  0  0  0  0  0  0  0999 V2000
   14.6205    6.4952    0.0000 C   0  0  0  0  0  0  0  0  0  0  0  0
   13.8705    5.1962    0.0000 C   0  0  0  0  0  0  0  0  0  0  0  0
   12.3705    5.1962    0.0000 C   0  0  0  0  0  0  0  0  0  0  0  0
   11.6205    3.8971    0.0000 C   0  0  0  0  0  0  0  0  0  0  0  0
   10.1205    3.8971    0.0000 C   0  0  0  0  0  0  0  0  0  0  0  0
    9.3705    2.5981    0.0000 C   0  0  0  0  0  0  0  0  0  0  0  0
    7.8705    2.5981    0.0000 C   0  0  0  0  0  0  0  0  0  0  0  0
    7.1205    1.2990    0.0000 C   0  0  0  0  0  0  0  0  0  0  0  0
    5.6205    1.2990    0.0000 O   0  0  0  0  0  0  0  0  0  0  0  0
    4.8705    0.0000    0.0000 N   0  0  0  0  0  0  0  0  0  0  0  0
    3.3705    0.0000    0.0000 C   0  0  0  0  0  0  0  0  0  0  0  0
    3.0367   -1.4624    0.0000 C   0  0  0  0  0  0  0  0  0  0  0  0
    4.3881   -2.1132    0.0000 C   0  0  0  0  0  0  0  0  0  0  0  0
    2.1015   -2.6351    0.0000 C   0  0  0  0  0  0  0  0  0  0  0  0
    3.0367   -3.8079    0.0000 O   0  0  0  0  0  0  0  0  0  0  0  0
    0.7500   -3.2860    0.0000 C   0  0  0  0  0  0  0  0  0  0  0  0
    1.8496   -4.3062    0.0000 C   0  0  0  0  0  0  0  0  0  0  0  0
    0.2020   -4.6823    0.0000 O   0  0  0  0  0  0  0  0  0  0  0  0
   -0.7500   -3.2860    0.0000 C   0  0  0  0  0  0  0  0  0  0  0  0
   -1.0838   -4.7484    0.0000 C   0  0  0  0  0  0  0  0  0  0  0  0
   -2.5171   -5.1905    0.0000 C   0  0  0  0  0  0  0  0  0  0  0  0
   -2.1015   -2.6351    0.0000 O   0  0  0  0  0  0  0  0  0  0  0  0
   -3.0367   -1.4624    0.0000 C   0  0  0  0  0  0  0  0  0  0  0  0
   -4.3881   -2.1132    0.0000 O   0  0  0  0  0  0  0  0  0  0  0  0
   -3.3705    0.0000    0.0000 C   0  0  0  0  0  0  0  0  0  0  0  0
   -4.6804   -0.3267    0.0000 C   0  0  0  0  0  0  0  0  0  0  0  0
   -3.0367    1.4624    0.0000 C   0  0  0  0  0  0  0  0  0  0  0  0
   -4.3881    2.1132    0.0000 O   0  0  0  0  0  0  0  0  0  0  0  0
   -5.6275    1.2682    0.0000 C   0  0  0  0  0  0  0  0  0  0  0  0
   -6.9790    1.9191    0.0000 C   0  0  0  0  0  0  0  0  0  0  0  0
   -8.2183    1.0741    0.0000 C   0  0  0  0  0  0  0  0  0  0  0  0
   -9.6719    0.7039    0.0000 C   0  0  0  0  0  0  0  0  0  0  0  0
   -8.8352    2.4413    0.0000 O   0  0  0  0  0  0  0  0  0  0  0  0
  -10.3278    2.5907    0.0000 C   0  0  0  0  0  0  0  0  0  0  0  0
   -8.1062   -0.4217    0.0000 C   0  0  0  0  0  0  0  0  0  0  0  0
   -9.3456   -1.2667    0.0000 O   0  0  0  0  0  0  0  0  0  0  0  0
   -9.2335   -2.7625    0.0000 C   0  0  0  0  0  0  0  0  0  0  0  0
  -10.4728   -3.6075    0.0000 C   0  0  0  0  0  0  0  0  0  0  0  0
   -7.8820   -3.4133    0.0000 O   0  0  0  0  0  0  0  0  0  0  0  0
   -6.7548   -1.0725    0.0000 C   0  0  0  0  0  0  0  0  0  0  0  0
   -6.6427   -2.5684    0.0000 C   0  0  0  0  0  0  0  0  0  0  0  0
   -5.5154   -0.2276    0.0000 O   0  0  0  0  0  0  0  0  0  0  0  0
   -2.1015    2.6351    0.0000 C   0  0  0  0  0  0  0  0  0  0  0  0
   -3.0367    3.8079    0.0000 C   0  0  0  0  0  0  0  0  0  0  0  0
   -0.7500    3.2860    0.0000 C   0  0  0  0  0  0  0  0  0  0  0  0
   -1.0838    4.7484    0.0000 O   0  0  0  0  0  0  0  0  0  0  0  0
    0.0158    5.7686    0.0000 C   0  0  0  0  0  0  0  0  0  0  0  0
    1.4492    5.3265    0.0000 O   0  0  0  0  0  0  0  0  0  0  0  0
    2.5487    6.3467    0.0000 C   0  0  0  0  0  0  0  0  0  0  0  0
    3.9821    5.9046    0.0000 C   0  0  0  0  0  0  0  0  0  0  0  0
    2.2150    7.8091    0.0000 C   0  0  0  0  0  0  0  0  0  0  0  0
    0.7816    8.2513    0.0000 C   0  0  0  0  0  0  0  0  0  0  0  0
    0.4478    9.7137    0.0000 N   0  0  0  0  0  0  0  0  0  0  0  0
    1.5474   10.7339    0.0000 C   0  0  0  0  0  0  0  0  0  0  0  0
   -0.9855   10.1558    0.0000 C   0  0  0  0  0  0  0  0  0  0  0  0
   -0.3180    7.2310    0.0000 C   0  0  0  0  0  0  0  0  0  0  0  0
   -1.7513    7.6731    0.0000 O   0  0  0  0  0  0  0  0  0  0  0  0
    0.7500    3.2860    0.0000 C   0  0  0  0  0  0  0  0  0  0  0  0
    0.2020    4.6823    0.0000 C   0  0  0  0  0  0  0  0  0  0  0  0
    1.8496    4.3062    0.0000 O   0  0  0  0  0  0  0  0  0  0  0  0
    2.1015    2.6351    0.0000 C   0  0  0  0  0  0  0  0  0  0  0  0
    3.0367    1.4624    0.0000 C   0  0  0  0  0  0  0  0  0  0  0  0
    4.3881    2.1132    0.0000 C   0  0  0  0  0  0  0  0  0  0  0  0
  1  2  1  0
  2  3  1  0
  3  4  1  0
  4  5  1  0
  5  6  1  0
  6  7  1  0
  7  8  1  0
  8  9  1  0
  9 10  1  0
 10 11  2  0
 11 12  1  0
 12 13  1  6
 12 14  1  0
 14 15  1  1
 14 16  1  0
 16 17  1  1
 16 18  1  0
 16 19  1  0
 19 20  1  1
 20 21  1  0
 19 22  1  0
 22 23  1  0
 23 24  2  0
 23 25  1  0
 25 26  1  6
 25 27  1  0
 27 28  1  1
 29 28  1  6
 29 30  1  0
 30 31  1  0
 31 32  1  1
 31 33  1  0
 33 34  1  0
 31 35  1  0
 35 36  1  6
 36 37  1  0
 37 38  1  0
 37 39  2  0
 35 40  1  0
 40 41  1  1
 40 42  1  0
 27 43  1  0
 43 44  1  6
 43 45  1  0
 45 46  1  1
 47 46  1  1
 47 48  1  0
 48 49  1  0
 49 50  1  1
 49 51  1  0
 51 52  1  0
 52 53  1  1
 53 54  1  0
 53 55  1  0
 52 56  1  0
 56 57  1  6
 45 58  1  0
 58 59  1  1
 58 60  1  0
 58 61  1  0
 61 62  1  0
 62 63  1  1
 62 11  1  0
 42 29  1  0
 56 47  1  0
M  END
>  <ChEMBL_IDs>  (607) 
nan

>  <target_organism>  (607) 
nan

>  <target_molecule_pref_name>  (607) 
nan

>  <# Known Targets>  (607) 
nan

>  <Known Targets>  (607) 
nan

>  <smiles>  (607) 
CCCCCCCCO/N=C1/[C@H](C)[C@@H](O)[C@](C)(O)[C@@H](CC)OC(=O)[C@H](C)[C@@H](O[C@H]2C[C@@](C)(OC)[C@@H](OC(C)=O)[C@H](C)O2)[C@H](C)[C@@H](O[C@@H]2O[C@H](C)C[C@H](N(C)C)[C@H]2O)[C@](C)(O)C[C@H]1C

$$$$

     RDKit          2D

 61 63  0  0  0  0  0  0  0  0999 V2000
   16.1205   -6.4952    0.0000 C   0  0  0  0  0  0  0  0  0  0  0  0
   14.6205   -6.4952    0.0000 C   0  0  0  0  0  0  0  0  0  0  0  0
   13.8705   -5.1962    0.0000 C   0  0  0  0  0  0  0  0  0  0  0  0
   12.3705   -5.1962    0.0000 C   0  0  0  0  0  0  0  0  0  0  0  0
   11.6205   -3.8971    0.0000 C   0  0  0  0  0  0  0  0  0  0  0  0
   10.1205   -3.8971    0.0000 C   0  0  0  0  0  0  0  0  0  0  0  0
    9.3705   -2.5981    0.0000 C   0  0  0  0  0  0  0  0  0  0  0  0
    7.8705   -2.5981    0.0000 C   0  0  0  0  0  0  0  0  0  0  0  0
    7.1205   -1.2990    0.0000 C   0  0  0  0  0  0  0  0  0  0  0  0
    5.6205   -1.2990    0.0000 C   0  0  0  0  0  0  0  0  0  0  0  0
    4.8705    0.0000    0.0000 N   0  0  0  0  0  0  0  0  0  0  0  0
    3.3705    0.0000    0.0000 C   0  0  0  0  0  0  0  0  0  0  0  0
    3.0367   -1.4624    0.0000 C   0  0  0  0  0  0  0  0  0  0  0  0
    4.3881   -2.1132    0.0000 C   0  0  0  0  0  0  0  0  0  0  0  0
    2.1015   -2.6351    0.0000 C   0  0  0  0  0  0  0  0  0  0  0  0
    3.0367   -3.8079    0.0000 O   0  0  0  0  0  0  0  0  0  0  0  0
    0.7500   -3.2860    0.0000 C   0  0  0  0  0  0  0  0  0  0  0  0
    1.8496   -4.3062    0.0000 C   0  0  0  0  0  0  0  0  0  0  0  0
    0.2020   -4.6823    0.0000 O   0  0  0  0  0  0  0  0  0  0  0  0
   -0.7500   -3.2860    0.0000 C   0  0  0  0  0  0  0  0  0  0  0  0
   -1.0838   -4.7484    0.0000 C   0  0  0  0  0  0  0  0  0  0  0  0
   -2.5171   -5.1905    0.0000 C   0  0  0  0  0  0  0  0  0  0  0  0
   -2.1015   -2.6351    0.0000 O   0  0  0  0  0  0  0  0  0  0  0  0
   -3.0367   -1.4624    0.0000 C   0  0  0  0  0  0  0  0  0  0  0  0
   -4.3881   -2.1132    0.0000 O   0  0  0  0  0  0  0  0  0  0  0  0
   -3.3705    0.0000    0.0000 C   0  0  0  0  0  0  0  0  0  0  0  0
   -4.6804   -0.3267    0.0000 C   0  0  0  0  0  0  0  0  0  0  0  0
   -3.0367    1.4624    0.0000 C   0  0  0  0  0  0  0  0  0  0  0  0
   -4.3881    2.1132    0.0000 O   0  0  0  0  0  0  0  0  0  0  0  0
   -5.6275    1.2682    0.0000 C   0  0  0  0  0  0  0  0  0  0  0  0
   -6.9790    1.9191    0.0000 C   0  0  0  0  0  0  0  0  0  0  0  0
   -8.2183    1.0741    0.0000 C   0  0  0  0  0  0  0  0  0  0  0  0
   -9.6719    0.7039    0.0000 C   0  0  0  0  0  0  0  0  0  0  0  0
   -8.8352    2.4413    0.0000 O   0  0  0  0  0  0  0  0  0  0  0  0
  -10.3278    2.5907    0.0000 C   0  0  0  0  0  0  0  0  0  0  0  0
   -8.1062   -0.4217    0.0000 C   0  0  0  0  0  0  0  0  0  0  0  0
   -9.3456   -1.2667    0.0000 O   0  0  0  0  0  0  0  0  0  0  0  0
   -6.7548   -1.0725    0.0000 C   0  0  0  0  0  0  0  0  0  0  0  0
   -6.6427   -2.5684    0.0000 C   0  0  0  0  0  0  0  0  0  0  0  0
   -5.5154   -0.2276    0.0000 O   0  0  0  0  0  0  0  0  0  0  0  0
   -2.1015    2.6351    0.0000 C   0  0  0  0  0  0  0  0  0  0  0  0
   -3.0367    3.8079    0.0000 C   0  0  0  0  0  0  0  0  0  0  0  0
   -0.7500    3.2860    0.0000 C   0  0  0  0  0  0  0  0  0  0  0  0
   -1.0838    4.7484    0.0000 O   0  0  0  0  0  0  0  0  0  0  0  0
    0.0158    5.7686    0.0000 C   0  0  0  0  0  0  0  0  0  0  0  0
    1.4492    5.3265    0.0000 O   0  0  0  0  0  0  0  0  0  0  0  0
    2.5487    6.3467    0.0000 C   0  0  0  0  0  0  0  0  0  0  0  0
    3.9821    5.9046    0.0000 C   0  0  0  0  0  0  0  0  0  0  0  0
    2.2150    7.8091    0.0000 C   0  0  0  0  0  0  0  0  0  0  0  0
    0.7816    8.2513    0.0000 C   0  0  0  0  0  0  0  0  0  0  0  0
    0.4478    9.7137    0.0000 N   0  0  0  0  0  0  0  0  0  0  0  0
    1.5474   10.7339    0.0000 C   0  0  0  0  0  0  0  0  0  0  0  0
   -0.9855   10.1558    0.0000 C   0  0  0  0  0  0  0  0  0  0  0  0
   -0.3180    7.2310    0.0000 C   0  0  0  0  0  0  0  0  0  0  0  0
   -1.7513    7.6731    0.0000 O   0  0  0  0  0  0  0  0  0  0  0  0
    0.7500    3.2860    0.0000 C   0  0  0  0  0  0  0  0  0  0  0  0
    0.2020    4.6823    0.0000 C   0  0  0  0  0  0  0  0  0  0  0  0
    1.8496    4.3062    0.0000 O   0  0  0  0  0  0  0  0  0  0  0  0
    2.1015    2.6351    0.0000 C   0  0  0  0  0  0  0  0  0  0  0  0
    3.0367    1.4624    0.0000 C   0  0  0  0  0  0  0  0  0  0  0  0
    4.3881    2.1132    0.0000 C   0  0  0  0  0  0  0  0  0  0  0  0
  1  2  1  0
  2  3  1  0
  3  4  1  0
  4  5  1  0
  5  6  1  0
  6  7  2  0
  7  8  1  0
  8  9  1  0
  9 10  1  0
 10 11  1  0
 12 11  1  6
 12 13  1  0
 13 14  1  6
 13 15  1  0
 15 16  1  1
 15 17  1  0
 17 18  1  1
 17 19  1  0
 17 20  1  0
 20 21  1  1
 21 22  1  0
 20 23  1  0
 23 24  1  0
 24 25  2  0
 24 26  1  0
 26 27  1  6
 26 28  1  0
 28 29  1  1
 29 30  1  0
 30 31  1  0
 31 32  1  0
 32 33  1  0
 32 34  1  0
 34 35  1  0
 32 36  1  0
 36 37  1  0
 36 38  1  0
 38 39  1  0
 38 40  1  0
 28 41  1  0
 41 42  1  6
 41 43  1  0
 43 44  1  1
 44 45  1  0
 45 46  1  0
 46 47  1  0
 47 48  1  0
 47 49  1  0
 49 50  1  0
 50 51  1  0
 51 52  1  0
 51 53  1  0
 50 54  1  0
 54 55  1  0
 43 56  1  0
 56 57  1  1
 56 58  1  0
 56 59  1  0
 59 60  1  0
 60 61  1  1
 60 12  1  0
 40 30  1  0
 54 45  1  0
M  END
>  <ChEMBL_IDs>  (608) 
CHEMBL321720

>  <target_organism>  (608) 
None

>  <target_molecule_pref_name>  (608) 
nan

>  <# Known Targets>  (608) 
nan

>  <Known Targets>  (608) 
nan

>  <smiles>  (608) 
CCCCC/C=C/CCCN[C@@H]1[C@H](C)[C@@H](O)[C@](C)(O)[C@@H](CC)OC(=O)[C@H](C)[C@@H](OC2CC(C)(OC)C(O)C(C)O2)[C@H](C)[C@@H](OC2OC(C)CC(N(C)C)C2O)[C@](C)(O)C[C@H]1C

$$$$

     RDKit          2D

 61 63  0  0  0  0  0  0  0  0999 V2000
    9.3705  -10.3923    0.0000 C   0  0  0  0  0  0  0  0  0  0  0  0
   10.1205   -9.0933    0.0000 C   0  0  0  0  0  0  0  0  0  0  0  0
    9.3705   -7.7942    0.0000 C   0  0  0  0  0  0  0  0  0  0  0  0
   10.1205   -6.4952    0.0000 C   0  0  0  0  0  0  0  0  0  0  0  0
    9.3705   -5.1962    0.0000 C   0  0  0  0  0  0  0  0  0  0  0  0
   10.1205   -3.8971    0.0000 C   0  0  0  0  0  0  0  0  0  0  0  0
    9.3705   -2.5981    0.0000 C   0  0  0  0  0  0  0  0  0  0  0  0
    7.8705   -2.5981    0.0000 C   0  0  0  0  0  0  0  0  0  0  0  0
    7.1205   -1.2990    0.0000 C   0  0  0  0  0  0  0  0  0  0  0  0
    5.6205   -1.2990    0.0000 C   0  0  0  0  0  0  0  0  0  0  0  0
    4.8705    0.0000    0.0000 N   0  0  0  0  0  0  0  0  0  0  0  0
    3.3705    0.0000    0.0000 C   0  0  0  0  0  0  0  0  0  0  0  0
    3.0367   -1.4624    0.0000 C   0  0  0  0  0  0  0  0  0  0  0  0
    4.3881   -2.1132    0.0000 C   0  0  0  0  0  0  0  0  0  0  0  0
    2.1015   -2.6351    0.0000 C   0  0  0  0  0  0  0  0  0  0  0  0
    3.0367   -3.8079    0.0000 O   0  0  0  0  0  0  0  0  0  0  0  0
    0.7500   -3.2860    0.0000 C   0  0  0  0  0  0  0  0  0  0  0  0
    1.8496   -4.3062    0.0000 C   0  0  0  0  0  0  0  0  0  0  0  0
    0.2020   -4.6823    0.0000 O   0  0  0  0  0  0  0  0  0  0  0  0
   -0.7500   -3.2860    0.0000 C   0  0  0  0  0  0  0  0  0  0  0  0
   -1.0838   -4.7484    0.0000 C   0  0  0  0  0  0  0  0  0  0  0  0
   -2.5171   -5.1905    0.0000 C   0  0  0  0  0  0  0  0  0  0  0  0
   -2.1015   -2.6351    0.0000 O   0  0  0  0  0  0  0  0  0  0  0  0
   -3.0367   -1.4624    0.0000 C   0  0  0  0  0  0  0  0  0  0  0  0
   -4.3881   -2.1132    0.0000 O   0  0  0  0  0  0  0  0  0  0  0  0
   -3.3705    0.0000    0.0000 C   0  0  0  0  0  0  0  0  0  0  0  0
   -4.6804   -0.3267    0.0000 C   0  0  0  0  0  0  0  0  0  0  0  0
   -3.0367    1.4624    0.0000 C   0  0  0  0  0  0  0  0  0  0  0  0
   -4.3881    2.1132    0.0000 O   0  0  0  0  0  0  0  0  0  0  0  0
   -5.6275    1.2682    0.0000 C   0  0  0  0  0  0  0  0  0  0  0  0
   -6.9790    1.9191    0.0000 C   0  0  0  0  0  0  0  0  0  0  0  0
   -8.2183    1.0741    0.0000 C   0  0  0  0  0  0  0  0  0  0  0  0
   -9.6719    0.7039    0.0000 C   0  0  0  0  0  0  0  0  0  0  0  0
   -8.8352    2.4413    0.0000 O   0  0  0  0  0  0  0  0  0  0  0  0
  -10.3278    2.5907    0.0000 C   0  0  0  0  0  0  0  0  0  0  0  0
   -8.1062   -0.4217    0.0000 C   0  0  0  0  0  0  0  0  0  0  0  0
   -9.3456   -1.2667    0.0000 O   0  0  0  0  0  0  0  0  0  0  0  0
   -6.7548   -1.0725    0.0000 C   0  0  0  0  0  0  0  0  0  0  0  0
   -6.6427   -2.5684    0.0000 C   0  0  0  0  0  0  0  0  0  0  0  0
   -5.5154   -0.2276    0.0000 O   0  0  0  0  0  0  0  0  0  0  0  0
   -2.1015    2.6351    0.0000 C   0  0  0  0  0  0  0  0  0  0  0  0
   -3.0367    3.8079    0.0000 C   0  0  0  0  0  0  0  0  0  0  0  0
   -0.7500    3.2860    0.0000 C   0  0  0  0  0  0  0  0  0  0  0  0
   -1.0838    4.7484    0.0000 O   0  0  0  0  0  0  0  0  0  0  0  0
    0.0158    5.7686    0.0000 C   0  0  0  0  0  0  0  0  0  0  0  0
    1.4492    5.3265    0.0000 O   0  0  0  0  0  0  0  0  0  0  0  0
    2.5487    6.3467    0.0000 C   0  0  0  0  0  0  0  0  0  0  0  0
    3.9821    5.9046    0.0000 C   0  0  0  0  0  0  0  0  0  0  0  0
    2.2150    7.8091    0.0000 C   0  0  0  0  0  0  0  0  0  0  0  0
    0.7816    8.2513    0.0000 C   0  0  0  0  0  0  0  0  0  0  0  0
    0.4478    9.7137    0.0000 N   0  0  0  0  0  0  0  0  0  0  0  0
    1.5474   10.7339    0.0000 C   0  0  0  0  0  0  0  0  0  0  0  0
   -0.9855   10.1558    0.0000 C   0  0  0  0  0  0  0  0  0  0  0  0
   -0.3180    7.2310    0.0000 C   0  0  0  0  0  0  0  0  0  0  0  0
   -1.7513    7.6731    0.0000 O   0  0  0  0  0  0  0  0  0  0  0  0
    0.7500    3.2860    0.0000 C   0  0  0  0  0  0  0  0  0  0  0  0
    0.2020    4.6823    0.0000 C   0  0  0  0  0  0  0  0  0  0  0  0
    1.8496    4.3062    0.0000 O   0  0  0  0  0  0  0  0  0  0  0  0
    2.1015    2.6351    0.0000 C   0  0  0  0  0  0  0  0  0  0  0  0
    3.0367    1.4624    0.0000 C   0  0  0  0  0  0  0  0  0  0  0  0
    4.3881    2.1132    0.0000 C   0  0  0  0  0  0  0  0  0  0  0  0
  1  2  1  0
  2  3  1  0
  3  4  1  0
  4  5  1  0
  5  6  1  0
  6  7  2  0
  7  8  1  0
  8  9  1  0
  9 10  1  0
 10 11  1  0
 12 11  1  6
 12 13  1  0
 13 14  1  6
 13 15  1  0
 15 16  1  1
 15 17  1  0
 17 18  1  1
 17 19  1  0
 17 20  1  0
 20 21  1  1
 21 22  1  0
 20 23  1  0
 23 24  1  0
 24 25  2  0
 24 26  1  0
 26 27  1  6
 26 28  1  0
 28 29  1  1
 29 30  1  0
 30 31  1  0
 31 32  1  0
 32 33  1  0
 32 34  1  0
 34 35  1  0
 32 36  1  0
 36 37  1  0
 36 38  1  0
 38 39  1  0
 38 40  1  0
 28 41  1  0
 41 42  1  6
 41 43  1  0
 43 44  1  1
 44 45  1  0
 45 46  1  0
 46 47  1  0
 47 48  1  0
 47 49  1  0
 49 50  1  0
 50 51  1  0
 51 52  1  0
 51 53  1  0
 50 54  1  0
 54 55  1  0
 43 56  1  0
 56 57  1  1
 56 58  1  0
 56 59  1  0
 59 60  1  0
 60 61  1  1
 60 12  1  0
 40 30  1  0
 54 45  1  0
M  END
>  <ChEMBL_IDs>  (609) 
CHEMBL2111665

>  <target_organism>  (609) 
Plasmodium falciparum

>  <target_molecule_pref_name>  (609) 
nan

>  <# Known Targets>  (609) 
nan

>  <Known Targets>  (609) 
nan

>  <smiles>  (609) 
CCCCC/C=C\CCCN[C@@H]1[C@H](C)[C@@H](O)[C@](C)(O)[C@@H](CC)OC(=O)[C@H](C)[C@@H](OC2CC(C)(OC)C(O)C(C)O2)[C@H](C)[C@@H](OC2OC(C)CC(N(C)C)C2O)[C@](C)(O)C[C@H]1C

$$$$

     RDKit          2D

 62 64  0  0  0  0  0  0  0  0999 V2000
   16.8705    7.7942    0.0000 C   0  0  0  0  0  0  0  0  0  0  0  0
   16.1205    6.4952    0.0000 C   0  0  0  0  0  0  0  0  0  0  0  0
   14.6205    6.4952    0.0000 C   0  0  0  0  0  0  0  0  0  0  0  0
   13.8705    5.1962    0.0000 C   0  0  0  0  0  0  0  0  0  0  0  0
   12.3705    5.1962    0.0000 C   0  0  0  0  0  0  0  0  0  0  0  0
   11.6205    3.8971    0.0000 C   0  0  0  0  0  0  0  0  0  0  0  0
   10.1205    3.8971    0.0000 C   0  0  0  0  0  0  0  0  0  0  0  0
    9.3705    2.5981    0.0000 C   0  0  0  0  0  0  0  0  0  0  0  0
    7.8705    2.5981    0.0000 C   0  0  0  0  0  0  0  0  0  0  0  0
    7.1205    1.2990    0.0000 C   0  0  0  0  0  0  0  0  0  0  0  0
    5.6205    1.2990    0.0000 O   0  0  0  0  0  0  0  0  0  0  0  0
    4.8705    0.0000    0.0000 N   0  0  0  0  0  0  0  0  0  0  0  0
    3.3705    0.0000    0.0000 C   0  0  0  0  0  0  0  0  0  0  0  0
    3.0367   -1.4624    0.0000 C   0  0  0  0  0  0  0  0  0  0  0  0
    4.3881   -2.1132    0.0000 C   0  0  0  0  0  0  0  0  0  0  0  0
    2.1015   -2.6351    0.0000 C   0  0  0  0  0  0  0  0  0  0  0  0
    3.0367   -3.8079    0.0000 O   0  0  0  0  0  0  0  0  0  0  0  0
    0.7500   -3.2860    0.0000 C   0  0  0  0  0  0  0  0  0  0  0  0
    1.8496   -4.3062    0.0000 C   0  0  0  0  0  0  0  0  0  0  0  0
    0.2020   -4.6823    0.0000 O   0  0  0  0  0  0  0  0  0  0  0  0
   -0.7500   -3.2860    0.0000 C   0  0  0  0  0  0  0  0  0  0  0  0
   -1.0838   -4.7484    0.0000 C   0  0  0  0  0  0  0  0  0  0  0  0
   -2.5171   -5.1905    0.0000 C   0  0  0  0  0  0  0  0  0  0  0  0
   -2.1015   -2.6351    0.0000 O   0  0  0  0  0  0  0  0  0  0  0  0
   -3.0367   -1.4624    0.0000 C   0  0  0  0  0  0  0  0  0  0  0  0
   -4.3881   -2.1132    0.0000 O   0  0  0  0  0  0  0  0  0  0  0  0
   -3.3705    0.0000    0.0000 C   0  0  0  0  0  0  0  0  0  0  0  0
   -4.6804   -0.3267    0.0000 C   0  0  0  0  0  0  0  0  0  0  0  0
   -3.0367    1.4624    0.0000 C   0  0  0  0  0  0  0  0  0  0  0  0
   -4.3881    2.1132    0.0000 O   0  0  0  0  0  0  0  0  0  0  0  0
   -5.6275    1.2682    0.0000 C   0  0  0  0  0  0  0  0  0  0  0  0
   -6.9790    1.9191    0.0000 C   0  0  0  0  0  0  0  0  0  0  0  0
   -8.2183    1.0741    0.0000 C   0  0  0  0  0  0  0  0  0  0  0  0
   -9.6719    0.7039    0.0000 C   0  0  0  0  0  0  0  0  0  0  0  0
   -8.8352    2.4413    0.0000 O   0  0  0  0  0  0  0  0  0  0  0  0
  -10.3278    2.5907    0.0000 C   0  0  0  0  0  0  0  0  0  0  0  0
   -8.1062   -0.4217    0.0000 C   0  0  0  0  0  0  0  0  0  0  0  0
   -9.3456   -1.2667    0.0000 O   0  0  0  0  0  0  0  0  0  0  0  0
   -6.7548   -1.0725    0.0000 C   0  0  0  0  0  0  0  0  0  0  0  0
   -6.6427   -2.5684    0.0000 C   0  0  0  0  0  0  0  0  0  0  0  0
   -5.5154   -0.2276    0.0000 O   0  0  0  0  0  0  0  0  0  0  0  0
   -2.1015    2.6351    0.0000 C   0  0  0  0  0  0  0  0  0  0  0  0
   -3.0367    3.8079    0.0000 C   0  0  0  0  0  0  0  0  0  0  0  0
   -0.7500    3.2860    0.0000 C   0  0  0  0  0  0  0  0  0  0  0  0
   -1.0838    4.7484    0.0000 O   0  0  0  0  0  0  0  0  0  0  0  0
    0.0158    5.7686    0.0000 C   0  0  0  0  0  0  0  0  0  0  0  0
    1.4492    5.3265    0.0000 O   0  0  0  0  0  0  0  0  0  0  0  0
    2.5487    6.3467    0.0000 C   0  0  0  0  0  0  0  0  0  0  0  0
    3.9821    5.9046    0.0000 C   0  0  0  0  0  0  0  0  0  0  0  0
    2.2150    7.8091    0.0000 C   0  0  0  0  0  0  0  0  0  0  0  0
    0.7816    8.2513    0.0000 C   0  0  0  0  0  0  0  0  0  0  0  0
    0.4478    9.7137    0.0000 N   0  0  0  0  0  0  0  0  0  0  0  0
    1.5474   10.7339    0.0000 C   0  0  0  0  0  0  0  0  0  0  0  0
   -0.9855   10.1558    0.0000 C   0  0  0  0  0  0  0  0  0  0  0  0
   -0.3180    7.2310    0.0000 C   0  0  0  0  0  0  0  0  0  0  0  0
   -1.7513    7.6731    0.0000 O   0  0  0  0  0  0  0  0  0  0  0  0
    0.7500    3.2860    0.0000 C   0  0  0  0  0  0  0  0  0  0  0  0
    0.2020    4.6823    0.0000 C   0  0  0  0  0  0  0  0  0  0  0  0
    1.8496    4.3062    0.0000 O   0  0  0  0  0  0  0  0  0  0  0  0
    2.1015    2.6351    0.0000 C   0  0  0  0  0  0  0  0  0  0  0  0
    3.0367    1.4624    0.0000 C   0  0  0  0  0  0  0  0  0  0  0  0
    4.3881    2.1132    0.0000 C   0  0  0  0  0  0  0  0  0  0  0  0
  1  2  1  0
  2  3  1  0
  3  4  1  0
  4  5  1  0
  5  6  1  0
  6  7  1  0
  7  8  1  0
  8  9  1  0
  9 10  1  0
 10 11  1  0
 11 12  1  0
 12 13  2  0
 13 14  1  0
 14 15  1  6
 14 16  1  0
 16 17  1  1
 16 18  1  0
 18 19  1  1
 18 20  1  0
 18 21  1  0
 21 22  1  1
 22 23  1  0
 21 24  1  0
 24 25  1  0
 25 26  2  0
 25 27  1  0
 27 28  1  6
 27 29  1  0
 29 30  1  1
 30 31  1  0
 31 32  1  0
 32 33  1  0
 33 34  1  1
 33 35  1  0
 35 36  1  0
 33 37  1  0
 37 38  1  6
 37 39  1  0
 39 40  1  1
 39 41  1  0
 29 42  1  0
 42 43  1  6
 42 44  1  0
 44 45  1  1
 46 45  1  1
 46 47  1  0
 47 48  1  0
 48 49  1  1
 48 50  1  0
 50 51  1  0
 51 52  1  1
 52 53  1  0
 52 54  1  0
 51 55  1  0
 55 56  1  6
 44 57  1  0
 57 58  1  1
 57 59  1  0
 57 60  1  0
 60 61  1  0
 61 62  1  1
 61 13  1  0
 41 31  1  0
 55 46  1  0
M  END
>  <ChEMBL_IDs>  (610) 
nan

>  <target_organism>  (610) 
nan

>  <target_molecule_pref_name>  (610) 
nan

>  <# Known Targets>  (610) 
nan

>  <Known Targets>  (610) 
nan

>  <smiles>  (610) 
CCCCCCCCCCO/N=C1/[C@H](C)[C@@H](O)[C@](C)(O)[C@@H](CC)OC(=O)[C@H](C)[C@@H](OC2C[C@@](C)(OC)[C@@H](O)[C@H](C)O2)[C@H](C)[C@@H](O[C@@H]2O[C@H](C)C[C@H](N(C)C)[C@H]2O)[C@](C)(O)C[C@H]1C

$$$$

     RDKit          2D

 61 63  0  0  0  0  0  0  0  0999 V2000
   16.1205   -6.4952    0.0000 C   0  0  0  0  0  0  0  0  0  0  0  0
   14.6205   -6.4952    0.0000 C   0  0  0  0  0  0  0  0  0  0  0  0
   13.8705   -5.1962    0.0000 C   0  0  0  0  0  0  0  0  0  0  0  0
   12.3705   -5.1962    0.0000 C   0  0  0  0  0  0  0  0  0  0  0  0
   11.6205   -3.8971    0.0000 C   0  0  0  0  0  0  0  0  0  0  0  0
   10.1205   -3.8971    0.0000 C   0  0  0  0  0  0  0  0  0  0  0  0
    9.3705   -2.5981    0.0000 C   0  0  0  0  0  0  0  0  0  0  0  0
    7.8705   -2.5981    0.0000 C   0  0  0  0  0  0  0  0  0  0  0  0
    7.1205   -1.2990    0.0000 C   0  0  0  0  0  0  0  0  0  0  0  0
    5.6205   -1.2990    0.0000 C   0  0  0  0  0  0  0  0  0  0  0  0
    4.8705    0.0000    0.0000 N   0  0  0  0  0  0  0  0  0  0  0  0
    3.3705    0.0000    0.0000 C   0  0  0  0  0  0  0  0  0  0  0  0
    3.0367   -1.4624    0.0000 C   0  0  0  0  0  0  0  0  0  0  0  0
    4.3881   -2.1132    0.0000 C   0  0  0  0  0  0  0  0  0  0  0  0
    2.1015   -2.6351    0.0000 C   0  0  0  0  0  0  0  0  0  0  0  0
    3.0367   -3.8079    0.0000 O   0  0  0  0  0  0  0  0  0  0  0  0
    0.7500   -3.2860    0.0000 C   0  0  0  0  0  0  0  0  0  0  0  0
    1.8496   -4.3062    0.0000 C   0  0  0  0  0  0  0  0  0  0  0  0
    0.2020   -4.6823    0.0000 O   0  0  0  0  0  0  0  0  0  0  0  0
   -0.7500   -3.2860    0.0000 C   0  0  0  0  0  0  0  0  0  0  0  0
   -1.0838   -4.7484    0.0000 C   0  0  0  0  0  0  0  0  0  0  0  0
   -2.5171   -5.1905    0.0000 C   0  0  0  0  0  0  0  0  0  0  0  0
   -2.1015   -2.6351    0.0000 O   0  0  0  0  0  0  0  0  0  0  0  0
   -3.0367   -1.4624    0.0000 C   0  0  0  0  0  0  0  0  0  0  0  0
   -4.3881   -2.1132    0.0000 O   0  0  0  0  0  0  0  0  0  0  0  0
   -3.3705    0.0000    0.0000 C   0  0  0  0  0  0  0  0  0  0  0  0
   -4.6804   -0.3267    0.0000 C   0  0  0  0  0  0  0  0  0  0  0  0
   -3.0367    1.4624    0.0000 C   0  0  0  0  0  0  0  0  0  0  0  0
   -4.3881    2.1132    0.0000 O   0  0  0  0  0  0  0  0  0  0  0  0
   -5.6275    1.2682    0.0000 C   0  0  0  0  0  0  0  0  0  0  0  0
   -6.9790    1.9191    0.0000 C   0  0  0  0  0  0  0  0  0  0  0  0
   -8.2183    1.0741    0.0000 C   0  0  0  0  0  0  0  0  0  0  0  0
   -9.6719    0.7039    0.0000 C   0  0  0  0  0  0  0  0  0  0  0  0
   -8.8352    2.4413    0.0000 O   0  0  0  0  0  0  0  0  0  0  0  0
  -10.3278    2.5907    0.0000 C   0  0  0  0  0  0  0  0  0  0  0  0
   -8.1062   -0.4217    0.0000 C   0  0  0  0  0  0  0  0  0  0  0  0
   -9.3456   -1.2667    0.0000 O   0  0  0  0  0  0  0  0  0  0  0  0
   -6.7548   -1.0725    0.0000 C   0  0  0  0  0  0  0  0  0  0  0  0
   -6.6427   -2.5684    0.0000 C   0  0  0  0  0  0  0  0  0  0  0  0
   -5.5154   -0.2276    0.0000 O   0  0  0  0  0  0  0  0  0  0  0  0
   -2.1015    2.6351    0.0000 C   0  0  0  0  0  0  0  0  0  0  0  0
   -3.0367    3.8079    0.0000 C   0  0  0  0  0  0  0  0  0  0  0  0
   -0.7500    3.2860    0.0000 C   0  0  0  0  0  0  0  0  0  0  0  0
   -1.0838    4.7484    0.0000 O   0  0  0  0  0  0  0  0  0  0  0  0
    0.0158    5.7686    0.0000 C   0  0  0  0  0  0  0  0  0  0  0  0
    1.4492    5.3265    0.0000 O   0  0  0  0  0  0  0  0  0  0  0  0
    2.5487    6.3467    0.0000 C   0  0  0  0  0  0  0  0  0  0  0  0
    3.9821    5.9046    0.0000 C   0  0  0  0  0  0  0  0  0  0  0  0
    2.2150    7.8091    0.0000 C   0  0  0  0  0  0  0  0  0  0  0  0
    0.7816    8.2513    0.0000 C   0  0  0  0  0  0  0  0  0  0  0  0
    0.4478    9.7137    0.0000 N   0  0  0  0  0  0  0  0  0  0  0  0
    1.5474   10.7339    0.0000 C   0  0  0  0  0  0  0  0  0  0  0  0
   -0.9855   10.1558    0.0000 C   0  0  0  0  0  0  0  0  0  0  0  0
   -0.3180    7.2310    0.0000 C   0  0  0  0  0  0  0  0  0  0  0  0
   -1.7513    7.6731    0.0000 O   0  0  0  0  0  0  0  0  0  0  0  0
    0.7500    3.2860    0.0000 C   0  0  0  0  0  0  0  0  0  0  0  0
    0.2020    4.6823    0.0000 C   0  0  0  0  0  0  0  0  0  0  0  0
    1.8496    4.3062    0.0000 O   0  0  0  0  0  0  0  0  0  0  0  0
    2.1015    2.6351    0.0000 C   0  0  0  0  0  0  0  0  0  0  0  0
    3.0367    1.4624    0.0000 C   0  0  0  0  0  0  0  0  0  0  0  0
    4.3881    2.1132    0.0000 C   0  0  0  0  0  0  0  0  0  0  0  0
  1  2  1  0
  2  3  1  0
  3  4  1  0
  4  5  1  0
  5  6  1  0
  6  7  1  0
  7  8  1  0
  8  9  1  0
  9 10  1  0
 10 11  1  0
 12 11  1  6
 12 13  1  0
 13 14  1  6
 13 15  1  0
 15 16  1  1
 15 17  1  0
 17 18  1  1
 17 19  1  0
 17 20  1  0
 20 21  1  1
 21 22  1  0
 20 23  1  0
 23 24  1  0
 24 25  2  0
 24 26  1  0
 26 27  1  6
 26 28  1  0
 28 29  1  1
 29 30  1  0
 30 31  1  0
 31 32  1  0
 32 33  1  0
 32 34  1  0
 34 35  1  0
 32 36  1  0
 36 37  1  0
 36 38  1  0
 38 39  1  0
 38 40  1  0
 28 41  1  0
 41 42  1  6
 41 43  1  0
 43 44  1  1
 44 45  1  0
 45 46  1  0
 46 47  1  0
 47 48  1  0
 47 49  1  0
 49 50  1  0
 50 51  1  0
 51 52  1  0
 51 53  1  0
 50 54  1  0
 54 55  1  0
 43 56  1  0
 56 57  1  1
 56 58  1  0
 56 59  1  0
 59 60  1  0
 60 61  1  1
 60 12  1  0
 40 30  1  0
 54 45  1  0
M  END
>  <ChEMBL_IDs>  (611) 
CHEMBL321992

>  <target_organism>  (611) 
None

>  <target_molecule_pref_name>  (611) 
nan

>  <# Known Targets>  (611) 
nan

>  <Known Targets>  (611) 
nan

>  <smiles>  (611) 
CCCCCCCCCCN[C@@H]1[C@H](C)[C@@H](O)[C@](C)(O)[C@@H](CC)OC(=O)[C@H](C)[C@@H](OC2CC(C)(OC)C(O)C(C)O2)[C@H](C)[C@@H](OC2OC(C)CC(N(C)C)C2O)[C@](C)(O)C[C@H]1C

$$$$

     RDKit          2D

 66 68  0  0  0  0  0  0  0  0999 V2000
   10.6766   -5.8285    0.0000 C   0  0  0  0  0  0  0  0  0  0  0  0
    9.2908   -5.2544    0.0000 C   0  0  0  0  0  0  0  0  0  0  0  0
    9.0950   -3.7673    0.0000 C   0  0  0  0  0  0  0  0  0  0  0  0
   10.3875   -3.0060    0.0000 O   0  0  0  0  0  0  0  0  0  0  0  0
    7.7092   -3.1933    0.0000 O   0  0  0  0  0  0  0  0  0  0  0  0
    7.5134   -1.7061    0.0000 C   0  0  0  0  0  0  0  0  0  0  0  0
    6.1276   -1.1321    0.0000 C   0  0  0  0  0  0  0  0  0  0  0  0
    4.9376   -2.0452    0.0000 O   0  0  0  0  0  0  0  0  0  0  0  0
    3.5517   -1.4712    0.0000 C   0  0  0  0  0  0  0  0  0  0  0  0
    2.7184   -2.7184    0.0000 C   0  0  0  0  0  0  0  0  0  0  0  0
    3.7790   -3.7790    0.0000 O   0  0  0  0  0  0  0  0  0  0  0  0
    5.2279   -3.3908    0.0000 C   0  0  0  0  0  0  0  0  0  0  0  0
    1.4712   -3.5517    0.0000 C   0  0  0  0  0  0  0  0  0  0  0  0
    2.0452   -4.9376    0.0000 O   0  0  0  0  0  0  0  0  0  0  0  0
    1.1321   -6.1276    0.0000 C   0  0  0  0  0  0  0  0  0  0  0  0
    1.7061   -7.5134    0.0000 C   0  0  0  0  0  0  0  0  0  0  0  0
   -0.3551   -5.9318    0.0000 O   0  0  0  0  0  0  0  0  0  0  0  0
   -0.0000   -3.8444    0.0000 C   0  0  0  0  0  0  0  0  0  0  0  0
   -1.4712   -3.5517    0.0000 C   0  0  0  0  0  0  0  0  0  0  0  0
   -2.0452   -4.9376    0.0000 O   0  0  0  0  0  0  0  0  0  0  0  0
   -2.7184   -2.7184    0.0000 O   0  0  0  0  0  0  0  0  0  0  0  0
   -3.5517   -1.4712    0.0000 C   0  0  0  0  0  0  0  0  0  0  0  0
   -4.9376   -2.0452    0.0000 C   0  0  0  0  0  0  0  0  0  0  0  0
   -3.8444    0.0000    0.0000 C   0  0  0  0  0  0  0  0  0  0  0  0
   -3.5517    1.4712    0.0000 C   0  0  0  0  0  0  0  0  0  0  0  0
   -2.7184    2.7184    0.0000 C   0  0  0  0  0  0  0  0  0  0  0  0
   -1.4712    3.5517    0.0000 C   0  0  0  0  0  0  0  0  0  0  0  0
    0.0000    3.8444    0.0000 C   0  0  0  0  0  0  0  0  0  0  0  0
    1.4712    3.5517    0.0000 C   0  0  0  0  0  0  0  0  0  0  0  0
    2.0452    4.9376    0.0000 O   0  0  0  0  0  0  0  0  0  0  0  0
    1.1321    6.1276    0.0000 C   0  0  0  0  0  0  0  0  0  0  0  0
   -0.3551    5.9318    0.0000 O   0  0  0  0  0  0  0  0  0  0  0  0
    1.7061    7.5134    0.0000 C   0  0  0  0  0  0  0  0  0  0  0  0
    0.7929    8.7034    0.0000 C   0  0  0  0  0  0  0  0  0  0  0  0
    2.7184    2.7184    0.0000 C   0  0  0  0  0  0  0  0  0  0  0  0
    3.7790    3.7790    0.0000 C   0  0  0  0  0  0  0  0  0  0  0  0
    3.5517    1.4712    0.0000 C   0  0  0  0  0  0  0  0  0  0  0  0
    3.8444   -0.0000    0.0000 C   0  0  0  0  0  0  0  0  0  0  0  0
    5.3444   -0.0000    0.0000 C   0  0  0  0  0  0  0  0  0  0  0  0
    6.0944    1.2990    0.0000 C   0  0  0  0  0  0  0  0  0  0  0  0
    7.5498    1.6620    0.0000 O   0  0  0  0  0  0  0  0  0  0  0  0
    5.9318    0.3551    0.0000 O   0  0  0  0  0  0  0  0  0  0  0  0
    7.1218    1.2682    0.0000 C   0  0  0  0  0  0  0  0  0  0  0  0
    6.9260    2.7554    0.0000 C   0  0  0  0  0  0  0  0  0  0  0  0
    8.5076    0.6942    0.0000 C   0  0  0  0  0  0  0  0  0  0  0  0
    9.6977    1.6074    0.0000 O   0  0  0  0  0  0  0  0  0  0  0  0
   11.0835    1.0333    0.0000 C   0  0  0  0  0  0  0  0  0  0  0  0
   11.2793   -0.4538    0.0000 C   0  0  0  0  0  0  0  0  0  0  0  0
   12.6651   -1.0279    0.0000 C   0  0  0  0  0  0  0  0  0  0  0  0
   13.7710   -2.0412    0.0000 C   0  0  0  0  0  0  0  0  0  0  0  0
   11.8592   -2.2929    0.0000 O   0  0  0  0  0  0  0  0  0  0  0  0
   13.8551   -0.1147    0.0000 C   0  0  0  0  0  0  0  0  0  0  0  0
   15.2410   -0.6887    0.0000 O   0  0  0  0  0  0  0  0  0  0  0  0
   16.4310    0.2244    0.0000 C   0  0  0  0  0  0  0  0  0  0  0  0
   16.2352    1.7116    0.0000 O   0  0  0  0  0  0  0  0  0  0  0  0
   17.8168   -0.3496    0.0000 C   0  0  0  0  0  0  0  0  0  0  0  0
   19.0068    0.5635    0.0000 C   0  0  0  0  0  0  0  0  0  0  0  0
   20.3927   -0.0105    0.0000 C   0  0  0  0  0  0  0  0  0  0  0  0
   18.8110    2.0507    0.0000 C   0  0  0  0  0  0  0  0  0  0  0  0
   13.6593    1.3725    0.0000 C   0  0  0  0  0  0  0  0  0  0  0  0
   14.8494    2.2856    0.0000 C   0  0  0  0  0  0  0  0  0  0  0  0
   12.2735    1.9465    0.0000 O   0  0  0  0  0  0  0  0  0  0  0  0
    8.7034   -0.7929    0.0000 C   0  0  0  0  0  0  0  0  0  0  0  0
   10.0893   -1.3670    0.0000 N   0  0  0  0  0  0  0  0  0  0  0  0
   10.4649   -2.8192    0.0000 C   0  0  0  0  0  0  0  0  0  0  0  0
   11.4649   -0.7689    0.0000 C   0  0  0  0  0  0  0  0  0  0  0  0
  1  2  1  0
  2  3  1  0
  3  4  2  0
  3  5  1  0
  6  5  1  1
  6  7  1  0
  7  8  1  6
  9  8  1  6
  9 10  1  0
 10 11  1  1
 11 12  1  0
 10 13  1  0
 13 14  1  6
 14 15  1  0
 15 16  1  0
 15 17  2  0
 13 18  1  0
 18 19  1  0
 19 20  2  0
 19 21  1  0
 21 22  1  0
 22 23  1  6
 22 24  1  0
 24 25  1  0
 25 26  2  0
 26 27  1  0
 27 28  2  0
 28 29  1  0
 29 30  1  6
 30 31  1  0
 31 32  2  0
 31 33  1  0
 33 34  1  0
 29 35  1  0
 35 36  1  6
 35 37  1  0
 37 38  1  0
 38 39  1  6
 39 40  1  0
 40 41  2  0
  7 42  1  0
 42 43  1  0
 43 44  1  6
 43 45  1  0
 45 46  1  1
 47 46  1  6
 47 48  1  0
 48 49  1  0
 49 50  1  1
 49 51  1  0
 49 52  1  0
 52 53  1  6
 53 54  1  0
 54 55  2  0
 54 56  1  0
 56 57  1  0
 57 58  1  0
 57 59  1  0
 52 60  1  0
 60 61  1  1
 60 62  1  0
 45 63  1  0
 63 64  1  6
 64 65  1  0
 64 66  1  0
 63  6  1  0
 38  9  1  0
 62 47  1  0
M  END
>  <ChEMBL_IDs>  (612) 
CHEMBL3251871

>  <target_organism>  (612) 
Homo sapiens

>  <target_molecule_pref_name>  (612) 
nan

>  <# Known Targets>  (612) 
nan

>  <Known Targets>  (612) 
nan

>  <smiles>  (612) 
CCC(=O)O[C@H]1[C@H](O[C@@H]2[C@@H](OC)[C@H](OC(C)=O)CC(=O)O[C@H](C)C/C=C/C=C/[C@H](OC(=O)CC)[C@H](C)C[C@@H]2CC=O)O[C@H](C)[C@@H](O[C@H]2C[C@@](C)(O)[C@@H](OC(=O)CC(C)C)[C@H](C)O2)[C@@H]1N(C)C

$$$$

     RDKit          2D

 66 68  0  0  0  0  0  0  0  0999 V2000
   -1.9271  -22.1412    0.0000 C   0  0  0  0  0  0  0  0  0  0  0  0
   -2.0392  -20.6453    0.0000 C   0  0  0  0  0  0  0  0  0  0  0  0
   -0.7998  -19.8004    0.0000 C   0  0  0  0  0  0  0  0  0  0  0  0
   -0.9119  -18.3046    0.0000 N   0  0  0  0  0  0  0  0  0  0  0  0
    0.3275  -17.4596    0.0000 C   0  0  0  0  0  0  0  0  0  0  0  0
    1.6789  -18.1104    0.0000 O   0  0  0  0  0  0  0  0  0  0  0  0
    0.2154  -15.9638    0.0000 C   0  0  0  0  0  0  0  0  0  0  0  0
    1.4547  -15.1188    0.0000 C   0  0  0  0  0  0  0  0  0  0  0  0
    1.3426  -13.6230    0.0000 C   0  0  0  0  0  0  0  0  0  0  0  0
    2.5820  -12.7780    0.0000 C   0  0  0  0  0  0  0  0  0  0  0  0
    2.4699  -11.2822    0.0000 C   0  0  0  0  0  0  0  0  0  0  0  0
    3.7093  -10.4372    0.0000 N   0  0  0  0  0  0  0  0  0  0  0  0
    3.5972   -8.9414    0.0000 C   0  0  0  0  0  0  0  0  0  0  0  0
    2.2457   -8.2906    0.0000 O   0  0  0  0  0  0  0  0  0  0  0  0
    4.8365   -8.0964    0.0000 O   0  0  0  0  0  0  0  0  0  0  0  0
    4.7244   -6.6006    0.0000 C   0  0  0  0  0  0  0  0  0  0  0  0
    3.3730   -5.9498    0.0000 C   0  0  0  0  0  0  0  0  0  0  0  0
    2.1336   -6.7948    0.0000 C   0  0  0  0  0  0  0  0  0  0  0  0
    3.2609   -4.4540    0.0000 O   0  0  0  0  0  0  0  0  0  0  0  0
    4.5002   -3.6090    0.0000 C   0  0  0  0  0  0  0  0  0  0  0  0
    4.3881   -2.1132    0.0000 O   0  0  0  0  0  0  0  0  0  0  0  0
    3.0367   -1.4624    0.0000 C   0  0  0  0  0  0  0  0  0  0  0  0
    3.3705    0.0000    0.0000 C   0  0  0  0  0  0  0  0  0  0  0  0
    4.6804   -0.3267    0.0000 C   0  0  0  0  0  0  0  0  0  0  0  0
    3.0367    1.4624    0.0000 C   0  0  0  0  0  0  0  0  0  0  0  0
    4.3881    2.1132    0.0000 O   0  0  0  0  0  0  0  0  0  0  0  0
    5.6275    1.2682    0.0000 C   0  0  0  0  0  0  0  0  0  0  0  0
    5.5154   -0.2276    0.0000 O   0  0  0  0  0  0  0  0  0  0  0  0
    6.7548   -1.0725    0.0000 C   0  0  0  0  0  0  0  0  0  0  0  0
    6.6427   -2.5684    0.0000 C   0  0  0  0  0  0  0  0  0  0  0  0
    8.1062   -0.4217    0.0000 C   0  0  0  0  0  0  0  0  0  0  0  0
    8.2183    1.0741    0.0000 C   0  0  0  0  0  0  0  0  0  0  0  0
    9.5698    1.7249    0.0000 N   0  0  0  0  0  0  0  0  0  0  0  0
   10.8091    0.8799    0.0000 C   0  0  0  0  0  0  0  0  0  0  0  0
    9.6819    3.2207    0.0000 C   0  0  0  0  0  0  0  0  0  0  0  0
    6.9790    1.9191    0.0000 C   0  0  0  0  0  0  0  0  0  0  0  0
    7.0910    3.4149    0.0000 O   0  0  0  0  0  0  0  0  0  0  0  0
    2.1015    2.6351    0.0000 C   0  0  0  0  0  0  0  0  0  0  0  0
    2.2135    4.1309    0.0000 C   0  0  0  0  0  0  0  0  0  0  0  0
    3.5348    3.0773    0.0000 O   0  0  0  0  0  0  0  0  0  0  0  0
    3.8686    4.5397    0.0000 C   0  0  0  0  0  0  0  0  0  0  0  0
    0.7500    3.2860    0.0000 C   0  0  0  0  0  0  0  0  0  0  0  0
   -0.7500    3.2860    0.0000 C   0  0  0  0  0  0  0  0  0  0  0  0
   -1.0838    4.7484    0.0000 C   0  0  0  0  0  0  0  0  0  0  0  0
   -2.1015    2.6351    0.0000 C   0  0  0  0  0  0  0  0  0  0  0  0
   -3.0367    3.8079    0.0000 O   0  0  0  0  0  0  0  0  0  0  0  0
   -3.0367    1.4624    0.0000 C   0  0  0  0  0  0  0  0  0  0  0  0
   -4.3881    2.1132    0.0000 C   0  0  0  0  0  0  0  0  0  0  0  0
   -3.3705    0.0000    0.0000 C   0  0  0  0  0  0  0  0  0  0  0  0
   -4.8705    0.0000    0.0000 O   0  0  0  0  0  0  0  0  0  0  0  0
   -3.0367   -1.4624    0.0000 C   0  0  0  0  0  0  0  0  0  0  0  0
   -3.7867   -2.7614    0.0000 C   0  0  0  0  0  0  0  0  0  0  0  0
   -4.5199   -1.2388    0.0000 O   0  0  0  0  0  0  0  0  0  0  0  0
   -2.1015   -2.6351    0.0000 C   0  0  0  0  0  0  0  0  0  0  0  0
   -3.0367   -3.8079    0.0000 C   0  0  0  0  0  0  0  0  0  0  0  0
   -4.5199   -3.5843    0.0000 C   0  0  0  0  0  0  0  0  0  0  0  0
   -0.7500   -3.2860    0.0000 O   0  0  0  0  0  0  0  0  0  0  0  0
    0.7500   -3.2860    0.0000 C   0  0  0  0  0  0  0  0  0  0  0  0
    1.0838   -4.7484    0.0000 O   0  0  0  0  0  0  0  0  0  0  0  0
    2.1015   -2.6351    0.0000 C   0  0  0  0  0  0  0  0  0  0  0  0
    2.6628   -3.8629    0.0000 C   0  0  0  0  0  0  0  0  0  0  0  0
    5.8517   -4.2598    0.0000 C   0  0  0  0  0  0  0  0  0  0  0  0
    5.9638   -5.7557    0.0000 C   0  0  0  0  0  0  0  0  0  0  0  0
    7.4174   -5.3855    0.0000 C   0  0  0  0  0  0  0  0  0  0  0  0
    6.5807   -7.1229    0.0000 O   0  0  0  0  0  0  0  0  0  0  0  0
    8.0733   -7.2723    0.0000 C   0  0  0  0  0  0  0  0  0  0  0  0
  1  2  1  0
  2  3  1  0
  3  4  2  0
  4  5  1  0
  5  6  2  0
  5  7  1  0
  7  8  1  0
  8  9  1  0
  9 10  1  0
 10 11  1  0
 11 12  1  0
 12 13  1  0
 13 14  2  0
 13 15  1  0
 16 15  1  1
 16 17  1  0
 17 18  1  6
 17 19  1  0
 19 20  1  0
 20 21  1  1
 22 21  1  6
 22 23  1  0
 23 24  1  1
 23 25  1  0
 25 26  1  6
 27 26  1  1
 27 28  1  0
 28 29  1  0
 29 30  1  1
 29 31  1  0
 31 32  1  0
 32 33  1  1
 33 34  1  0
 33 35  1  0
 32 36  1  0
 36 37  1  6
 25 38  1  0
 38 39  1  6
 38 40  1  0
 40 41  1  0
 38 42  1  0
 42 43  1  0
 43 44  1  6
 43 45  1  0
 45 46  2  0
 45 47  1  0
 47 48  1  1
 47 49  1  0
 49 50  1  6
 49 51  1  0
 51 52  1  6
 51 53  1  0
 51 54  1  0
 54 55  1  6
 55 56  1  0
 54 57  1  0
 57 58  1  0
 58 59  2  0
 58 60  1  0
 60 61  1  1
 20 62  1  0
 62 63  1  0
 63 64  1  6
 63 65  1  0
 65 66  1  0
 63 16  1  0
 60 22  1  0
 36 27  1  0
M  END
>  <ChEMBL_IDs>  (613) 
CHEMBL1668180

>  <target_organism>  (613) 
None

>  <target_molecule_pref_name>  (613) 
nan

>  <# Known Targets>  (613) 
nan

>  <Known Targets>  (613) 
nan

>  <smiles>  (613) 
CC/C=N/C(=O)CCCCCNC(=O)O[C@H]1[C@H](C)O[C@@H](O[C@H]2[C@H](C)[C@@H](O[C@@H]3O[C@H](C)C[C@H](N(C)C)[C@H]3O)[C@](C)(OC)C[C@@H](C)C(=O)[C@H](C)[C@@H](O)[C@](C)(O)[C@@H](CC)OC(=O)[C@@H]2C)C[C@@]1(C)OC

$$$$

     RDKit          2D

 66 68  0  0  0  0  0  0  0  0999 V2000
   -1.9271  -22.1412    0.0000 C   0  0  0  0  0  0  0  0  0  0  0  0
   -2.0392  -20.6453    0.0000 C   0  0  0  0  0  0  0  0  0  0  0  0
   -0.7998  -19.8004    0.0000 C   0  0  0  0  0  0  0  0  0  0  0  0
   -0.9119  -18.3046    0.0000 C   0  0  0  0  0  0  0  0  0  0  0  0
    0.3275  -17.4596    0.0000 C   0  0  0  0  0  0  0  0  0  0  0  0
    0.2154  -15.9638    0.0000 N   0  0  0  0  0  0  0  0  0  0  0  0
    1.4547  -15.1188    0.0000 C   0  0  0  0  0  0  0  0  0  0  0  0
    2.8062  -15.7696    0.0000 O   0  0  0  0  0  0  0  0  0  0  0  0
    1.3426  -13.6230    0.0000 C   0  0  0  0  0  0  0  0  0  0  0  0
    2.5820  -12.7780    0.0000 C   0  0  0  0  0  0  0  0  0  0  0  0
    2.4699  -11.2822    0.0000 C   0  0  0  0  0  0  0  0  0  0  0  0
    3.7093  -10.4372    0.0000 N   0  0  0  0  0  0  0  0  0  0  0  0
    3.5972   -8.9414    0.0000 C   0  0  0  0  0  0  0  0  0  0  0  0
    2.2457   -8.2906    0.0000 O   0  0  0  0  0  0  0  0  0  0  0  0
    4.8365   -8.0964    0.0000 O   0  0  0  0  0  0  0  0  0  0  0  0
    4.7244   -6.6006    0.0000 C   0  0  0  0  0  0  0  0  0  0  0  0
    3.3730   -5.9498    0.0000 C   0  0  0  0  0  0  0  0  0  0  0  0
    2.1336   -6.7948    0.0000 C   0  0  0  0  0  0  0  0  0  0  0  0
    3.2609   -4.4540    0.0000 O   0  0  0  0  0  0  0  0  0  0  0  0
    4.5002   -3.6090    0.0000 C   0  0  0  0  0  0  0  0  0  0  0  0
    4.3881   -2.1132    0.0000 O   0  0  0  0  0  0  0  0  0  0  0  0
    3.0367   -1.4624    0.0000 C   0  0  0  0  0  0  0  0  0  0  0  0
    3.3705    0.0000    0.0000 C   0  0  0  0  0  0  0  0  0  0  0  0
    4.6804   -0.3267    0.0000 C   0  0  0  0  0  0  0  0  0  0  0  0
    3.0367    1.4624    0.0000 C   0  0  0  0  0  0  0  0  0  0  0  0
    4.3881    2.1132    0.0000 O   0  0  0  0  0  0  0  0  0  0  0  0
    5.6275    1.2682    0.0000 C   0  0  0  0  0  0  0  0  0  0  0  0
    5.5154   -0.2276    0.0000 O   0  0  0  0  0  0  0  0  0  0  0  0
    6.7548   -1.0725    0.0000 C   0  0  0  0  0  0  0  0  0  0  0  0
    6.6427   -2.5684    0.0000 C   0  0  0  0  0  0  0  0  0  0  0  0
    8.1062   -0.4217    0.0000 C   0  0  0  0  0  0  0  0  0  0  0  0
    8.2183    1.0741    0.0000 C   0  0  0  0  0  0  0  0  0  0  0  0
    9.5698    1.7249    0.0000 N   0  0  0  0  0  0  0  0  0  0  0  0
   10.8091    0.8799    0.0000 C   0  0  0  0  0  0  0  0  0  0  0  0
    9.6819    3.2207    0.0000 C   0  0  0  0  0  0  0  0  0  0  0  0
    6.9790    1.9191    0.0000 C   0  0  0  0  0  0  0  0  0  0  0  0
    7.0910    3.4149    0.0000 O   0  0  0  0  0  0  0  0  0  0  0  0
    2.1015    2.6351    0.0000 C   0  0  0  0  0  0  0  0  0  0  0  0
    2.2135    4.1309    0.0000 C   0  0  0  0  0  0  0  0  0  0  0  0
    3.5348    3.0773    0.0000 O   0  0  0  0  0  0  0  0  0  0  0  0
    3.8686    4.5397    0.0000 C   0  0  0  0  0  0  0  0  0  0  0  0
    0.7500    3.2860    0.0000 C   0  0  0  0  0  0  0  0  0  0  0  0
   -0.7500    3.2860    0.0000 C   0  0  0  0  0  0  0  0  0  0  0  0
   -1.0838    4.7484    0.0000 C   0  0  0  0  0  0  0  0  0  0  0  0
   -2.1015    2.6351    0.0000 C   0  0  0  0  0  0  0  0  0  0  0  0
   -3.0367    3.8079    0.0000 O   0  0  0  0  0  0  0  0  0  0  0  0
   -3.0367    1.4624    0.0000 C   0  0  0  0  0  0  0  0  0  0  0  0
   -4.3881    2.1132    0.0000 C   0  0  0  0  0  0  0  0  0  0  0  0
   -3.3705    0.0000    0.0000 C   0  0  0  0  0  0  0  0  0  0  0  0
   -4.8705    0.0000    0.0000 O   0  0  0  0  0  0  0  0  0  0  0  0
   -3.0367   -1.4624    0.0000 C   0  0  0  0  0  0  0  0  0  0  0  0
   -3.7867   -2.7614    0.0000 C   0  0  0  0  0  0  0  0  0  0  0  0
   -4.5199   -1.2388    0.0000 O   0  0  0  0  0  0  0  0  0  0  0  0
   -2.1015   -2.6351    0.0000 C   0  0  0  0  0  0  0  0  0  0  0  0
   -3.0367   -3.8079    0.0000 C   0  0  0  0  0  0  0  0  0  0  0  0
   -4.5199   -3.5843    0.0000 C   0  0  0  0  0  0  0  0  0  0  0  0
   -0.7500   -3.2860    0.0000 O   0  0  0  0  0  0  0  0  0  0  0  0
    0.7500   -3.2860    0.0000 C   0  0  0  0  0  0  0  0  0  0  0  0
    1.0838   -4.7484    0.0000 O   0  0  0  0  0  0  0  0  0  0  0  0
    2.1015   -2.6351    0.0000 C   0  0  0  0  0  0  0  0  0  0  0  0
    2.6628   -3.8629    0.0000 C   0  0  0  0  0  0  0  0  0  0  0  0
    5.8517   -4.2598    0.0000 C   0  0  0  0  0  0  0  0  0  0  0  0
    5.9638   -5.7557    0.0000 C   0  0  0  0  0  0  0  0  0  0  0  0
    7.4174   -5.3855    0.0000 C   0  0  0  0  0  0  0  0  0  0  0  0
    6.5807   -7.1229    0.0000 O   0  0  0  0  0  0  0  0  0  0  0  0
    8.0733   -7.2723    0.0000 C   0  0  0  0  0  0  0  0  0  0  0  0
  1  2  1  0
  2  3  1  0
  3  4  1  0
  4  5  1  0
  5  6  1  0
  6  7  1  0
  7  8  2  0
  7  9  1  0
  9 10  1  0
 10 11  1  0
 11 12  1  0
 12 13  1  0
 13 14  2  0
 13 15  1  0
 16 15  1  1
 16 17  1  0
 17 18  1  6
 17 19  1  0
 19 20  1  0
 20 21  1  1
 22 21  1  6
 22 23  1  0
 23 24  1  1
 23 25  1  0
 25 26  1  6
 27 26  1  1
 27 28  1  0
 28 29  1  0
 29 30  1  1
 29 31  1  0
 31 32  1  0
 32 33  1  1
 33 34  1  0
 33 35  1  0
 32 36  1  0
 36 37  1  6
 25 38  1  0
 38 39  1  6
 38 40  1  0
 40 41  1  0
 38 42  1  0
 42 43  1  0
 43 44  1  6
 43 45  1  0
 45 46  2  0
 45 47  1  0
 47 48  1  1
 47 49  1  0
 49 50  1  6
 49 51  1  0
 51 52  1  6
 51 53  1  0
 51 54  1  0
 54 55  1  6
 55 56  1  0
 54 57  1  0
 57 58  1  0
 58 59  2  0
 58 60  1  0
 60 61  1  1
 20 62  1  0
 62 63  1  0
 63 64  1  6
 63 65  1  0
 65 66  1  0
 63 16  1  0
 60 22  1  0
 36 27  1  0
M  END
>  <ChEMBL_IDs>  (614) 
CHEMBL1668171

>  <target_organism>  (614) 
None

>  <target_molecule_pref_name>  (614) 
nan

>  <# Known Targets>  (614) 
nan

>  <Known Targets>  (614) 
nan

>  <smiles>  (614) 
CCCCCNC(=O)CCCNC(=O)O[C@H]1[C@H](C)O[C@@H](O[C@H]2[C@H](C)[C@@H](O[C@@H]3O[C@H](C)C[C@H](N(C)C)[C@H]3O)[C@](C)(OC)C[C@@H](C)C(=O)[C@H](C)[C@@H](O)[C@](C)(O)[C@@H](CC)OC(=O)[C@@H]2C)C[C@@]1(C)OC

$$$$

     RDKit          2D

 66 68  0  0  0  0  0  0  0  0999 V2000
   -1.9271  -22.1412    0.0000 C   0  0  0  0  0  0  0  0  0  0  0  0
   -2.0392  -20.6453    0.0000 C   0  0  0  0  0  0  0  0  0  0  0  0
   -0.7998  -19.8004    0.0000 C   0  0  0  0  0  0  0  0  0  0  0  0
   -0.9119  -18.3046    0.0000 N   0  0  0  0  0  0  0  0  0  0  0  0
    0.3275  -17.4596    0.0000 C   0  0  0  0  0  0  0  0  0  0  0  0
    1.6789  -18.1104    0.0000 O   0  0  0  0  0  0  0  0  0  0  0  0
    0.2154  -15.9638    0.0000 C   0  0  0  0  0  0  0  0  0  0  0  0
    1.4547  -15.1188    0.0000 C   0  0  0  0  0  0  0  0  0  0  0  0
    1.3426  -13.6230    0.0000 C   0  0  0  0  0  0  0  0  0  0  0  0
    2.5820  -12.7780    0.0000 C   0  0  0  0  0  0  0  0  0  0  0  0
    2.4699  -11.2822    0.0000 C   0  0  0  0  0  0  0  0  0  0  0  0
    3.7093  -10.4372    0.0000 N   0  0  0  0  0  0  0  0  0  0  0  0
    3.5972   -8.9414    0.0000 C   0  0  0  0  0  0  0  0  0  0  0  0
    2.2457   -8.2906    0.0000 O   0  0  0  0  0  0  0  0  0  0  0  0
    4.8365   -8.0964    0.0000 O   0  0  0  0  0  0  0  0  0  0  0  0
    4.7244   -6.6006    0.0000 C   0  0  0  0  0  0  0  0  0  0  0  0
    3.3730   -5.9498    0.0000 C   0  0  0  0  0  0  0  0  0  0  0  0
    2.1336   -6.7948    0.0000 C   0  0  0  0  0  0  0  0  0  0  0  0
    3.2609   -4.4540    0.0000 O   0  0  0  0  0  0  0  0  0  0  0  0
    4.5002   -3.6090    0.0000 C   0  0  0  0  0  0  0  0  0  0  0  0
    4.3881   -2.1132    0.0000 O   0  0  0  0  0  0  0  0  0  0  0  0
    3.0367   -1.4624    0.0000 C   0  0  0  0  0  0  0  0  0  0  0  0
    3.3705    0.0000    0.0000 C   0  0  0  0  0  0  0  0  0  0  0  0
    4.6804   -0.3267    0.0000 C   0  0  0  0  0  0  0  0  0  0  0  0
    3.0367    1.4624    0.0000 C   0  0  0  0  0  0  0  0  0  0  0  0
    4.3881    2.1132    0.0000 O   0  0  0  0  0  0  0  0  0  0  0  0
    5.6275    1.2682    0.0000 C   0  0  0  0  0  0  0  0  0  0  0  0
    5.5154   -0.2276    0.0000 O   0  0  0  0  0  0  0  0  0  0  0  0
    6.7548   -1.0725    0.0000 C   0  0  0  0  0  0  0  0  0  0  0  0
    6.6427   -2.5684    0.0000 C   0  0  0  0  0  0  0  0  0  0  0  0
    8.1062   -0.4217    0.0000 C   0  0  0  0  0  0  0  0  0  0  0  0
    8.2183    1.0741    0.0000 C   0  0  0  0  0  0  0  0  0  0  0  0
    9.5698    1.7249    0.0000 N   0  0  0  0  0  0  0  0  0  0  0  0
   10.8091    0.8799    0.0000 C   0  0  0  0  0  0  0  0  0  0  0  0
    9.6819    3.2207    0.0000 C   0  0  0  0  0  0  0  0  0  0  0  0
    6.9790    1.9191    0.0000 C   0  0  0  0  0  0  0  0  0  0  0  0
    7.0910    3.4149    0.0000 O   0  0  0  0  0  0  0  0  0  0  0  0
    2.1015    2.6351    0.0000 C   0  0  0  0  0  0  0  0  0  0  0  0
    2.2135    4.1309    0.0000 C   0  0  0  0  0  0  0  0  0  0  0  0
    3.5348    3.0773    0.0000 O   0  0  0  0  0  0  0  0  0  0  0  0
    3.8686    4.5397    0.0000 C   0  0  0  0  0  0  0  0  0  0  0  0
    0.7500    3.2860    0.0000 C   0  0  0  0  0  0  0  0  0  0  0  0
   -0.7500    3.2860    0.0000 C   0  0  0  0  0  0  0  0  0  0  0  0
   -1.0838    4.7484    0.0000 C   0  0  0  0  0  0  0  0  0  0  0  0
   -2.1015    2.6351    0.0000 C   0  0  0  0  0  0  0  0  0  0  0  0
   -3.0367    3.8079    0.0000 O   0  0  0  0  0  0  0  0  0  0  0  0
   -3.0367    1.4624    0.0000 C   0  0  0  0  0  0  0  0  0  0  0  0
   -4.3881    2.1132    0.0000 C   0  0  0  0  0  0  0  0  0  0  0  0
   -3.3705    0.0000    0.0000 C   0  0  0  0  0  0  0  0  0  0  0  0
   -4.8705    0.0000    0.0000 O   0  0  0  0  0  0  0  0  0  0  0  0
   -3.0367   -1.4624    0.0000 C   0  0  0  0  0  0  0  0  0  0  0  0
   -3.7867   -2.7614    0.0000 C   0  0  0  0  0  0  0  0  0  0  0  0
   -4.5199   -1.2388    0.0000 O   0  0  0  0  0  0  0  0  0  0  0  0
   -2.1015   -2.6351    0.0000 C   0  0  0  0  0  0  0  0  0  0  0  0
   -3.0367   -3.8079    0.0000 C   0  0  0  0  0  0  0  0  0  0  0  0
   -4.5199   -3.5843    0.0000 C   0  0  0  0  0  0  0  0  0  0  0  0
   -0.7500   -3.2860    0.0000 O   0  0  0  0  0  0  0  0  0  0  0  0
    0.7500   -3.2860    0.0000 C   0  0  0  0  0  0  0  0  0  0  0  0
    1.0838   -4.7484    0.0000 O   0  0  0  0  0  0  0  0  0  0  0  0
    2.1015   -2.6351    0.0000 C   0  0  0  0  0  0  0  0  0  0  0  0
    2.6628   -3.8629    0.0000 C   0  0  0  0  0  0  0  0  0  0  0  0
    5.8517   -4.2598    0.0000 C   0  0  0  0  0  0  0  0  0  0  0  0
    5.9638   -5.7557    0.0000 C   0  0  0  0  0  0  0  0  0  0  0  0
    7.4174   -5.3855    0.0000 C   0  0  0  0  0  0  0  0  0  0  0  0
    6.5807   -7.1229    0.0000 O   0  0  0  0  0  0  0  0  0  0  0  0
    8.0733   -7.2723    0.0000 C   0  0  0  0  0  0  0  0  0  0  0  0
  1  2  1  0
  2  3  1  0
  3  4  1  0
  4  5  1  0
  5  6  2  0
  5  7  1  0
  7  8  1  0
  8  9  1  0
  9 10  1  0
 10 11  1  0
 11 12  1  0
 12 13  1  0
 13 14  2  0
 13 15  1  0
 16 15  1  1
 16 17  1  0
 17 18  1  6
 17 19  1  0
 19 20  1  0
 20 21  1  1
 22 21  1  6
 22 23  1  0
 23 24  1  1
 23 25  1  0
 25 26  1  6
 27 26  1  1
 27 28  1  0
 28 29  1  0
 29 30  1  1
 29 31  1  0
 31 32  1  0
 32 33  1  1
 33 34  1  0
 33 35  1  0
 32 36  1  0
 36 37  1  6
 25 38  1  0
 38 39  1  6
 38 40  1  0
 40 41  1  0
 38 42  1  0
 42 43  1  0
 43 44  1  6
 43 45  1  0
 45 46  2  0
 45 47  1  0
 47 48  1  1
 47 49  1  0
 49 50  1  6
 49 51  1  0
 51 52  1  6
 51 53  1  0
 51 54  1  0
 54 55  1  6
 55 56  1  0
 54 57  1  0
 57 58  1  0
 58 59  2  0
 58 60  1  0
 60 61  1  1
 20 62  1  0
 62 63  1  0
 63 64  1  6
 63 65  1  0
 65 66  1  0
 63 16  1  0
 60 22  1  0
 36 27  1  0
M  END
>  <ChEMBL_IDs>  (615) 
CHEMBL1668179

>  <target_organism>  (615) 
None

>  <target_molecule_pref_name>  (615) 
nan

>  <# Known Targets>  (615) 
nan

>  <Known Targets>  (615) 
nan

>  <smiles>  (615) 
CCCNC(=O)CCCCCNC(=O)O[C@H]1[C@H](C)O[C@@H](O[C@H]2[C@H](C)[C@@H](O[C@@H]3O[C@H](C)C[C@H](N(C)C)[C@H]3O)[C@](C)(OC)C[C@@H](C)C(=O)[C@H](C)[C@@H](O)[C@](C)(O)[C@@H](CC)OC(=O)[C@@H]2C)C[C@@]1(C)OC

$$$$

     RDKit          2D

 66 68  0  0  0  0  0  0  0  0999 V2000
    5.6205   -1.2990    0.0000 C   0  0  0  0  0  0  0  0  0  0  0  0
    4.8705    0.0000    0.0000 C   0  0  0  0  0  0  0  0  0  0  0  0
    3.3705    0.0000    0.0000 C   0  0  0  0  0  0  0  0  0  0  0  0
    3.0367   -1.4624    0.0000 O   0  0  0  0  0  0  0  0  0  0  0  0
    2.1015   -2.6351    0.0000 C   0  0  0  0  0  0  0  0  0  0  0  0
    3.0367   -3.8079    0.0000 O   0  0  0  0  0  0  0  0  0  0  0  0
    0.7500   -3.2860    0.0000 C   0  0  0  0  0  0  0  0  0  0  0  0
    1.3600   -4.4903    0.0000 C   0  0  0  0  0  0  0  0  0  0  0  0
   -0.7500   -3.2860    0.0000 C   0  0  0  0  0  0  0  0  0  0  0  0
   -1.0838   -4.7484    0.0000 O   0  0  0  0  0  0  0  0  0  0  0  0
    0.0158   -5.7686    0.0000 C   0  0  0  0  0  0  0  0  0  0  0  0
   -0.3180   -7.2310    0.0000 C   0  0  0  0  0  0  0  0  0  0  0  0
    0.7816   -8.2513    0.0000 C   0  0  0  0  0  0  0  0  0  0  0  0
    1.4659   -9.5861    0.0000 C   0  0  0  0  0  0  0  0  0  0  0  0
   -0.4141   -9.1570    0.0000 O   0  0  0  0  0  0  0  0  0  0  0  0
   -0.2276  -10.6453    0.0000 C   0  0  0  0  0  0  0  0  0  0  0  0
    2.2150   -7.8091    0.0000 C   0  0  0  0  0  0  0  0  0  0  0  0
    3.3145   -8.8294    0.0000 O   0  0  0  0  0  0  0  0  0  0  0  0
    4.7479   -8.3873    0.0000 C   0  0  0  0  0  0  0  0  0  0  0  0
    5.0817   -6.9249    0.0000 O   0  0  0  0  0  0  0  0  0  0  0  0
    5.8475   -9.4075    0.0000 N   0  0  0  0  0  0  0  0  0  0  0  0
    7.2808   -8.9654    0.0000 C   0  0  0  0  0  0  0  0  0  0  0  0
    8.3804   -9.9856    0.0000 C   0  0  0  0  0  0  0  0  0  0  0  0
    9.8138   -9.5435    0.0000 C   0  0  0  0  0  0  0  0  0  0  0  0
   10.9133  -10.5638    0.0000 C   0  0  0  0  0  0  0  0  0  0  0  0
   12.3467  -10.1216    0.0000 C   0  0  0  0  0  0  0  0  0  0  0  0
   13.4463  -11.1419    0.0000 C   0  0  0  0  0  0  0  0  0  0  0  0
   13.1125  -12.6043    0.0000 O   0  0  0  0  0  0  0  0  0  0  0  0
   14.8796  -10.6998    0.0000 N   0  0  0  0  0  0  0  0  0  0  0  0
   15.9792  -11.7200    0.0000 C   0  0  0  0  0  0  0  0  0  0  0  0
   17.4126  -11.2779    0.0000 C   0  0  0  0  0  0  0  0  0  0  0  0
   15.6454  -13.1824    0.0000 C   0  0  0  0  0  0  0  0  0  0  0  0
    2.5487   -6.3467    0.0000 C   0  0  0  0  0  0  0  0  0  0  0  0
    3.9821   -5.9046    0.0000 C   0  0  0  0  0  0  0  0  0  0  0  0
    1.4492   -5.3265    0.0000 O   0  0  0  0  0  0  0  0  0  0  0  0
   -2.1015   -2.6351    0.0000 C   0  0  0  0  0  0  0  0  0  0  0  0
   -3.0367   -3.8079    0.0000 C   0  0  0  0  0  0  0  0  0  0  0  0
   -3.0367   -1.4624    0.0000 C   0  0  0  0  0  0  0  0  0  0  0  0
   -4.3881   -2.1132    0.0000 O   0  0  0  0  0  0  0  0  0  0  0  0
   -5.6275   -1.2682    0.0000 C   0  0  0  0  0  0  0  0  0  0  0  0
   -5.5154    0.2276    0.0000 O   0  0  0  0  0  0  0  0  0  0  0  0
   -6.7548    1.0725    0.0000 C   0  0  0  0  0  0  0  0  0  0  0  0
   -6.6427    2.5684    0.0000 C   0  0  0  0  0  0  0  0  0  0  0  0
   -8.1062    0.4217    0.0000 C   0  0  0  0  0  0  0  0  0  0  0  0
   -8.2183   -1.0741    0.0000 C   0  0  0  0  0  0  0  0  0  0  0  0
   -9.5698   -1.7249    0.0000 N   0  0  0  0  0  0  0  0  0  0  0  0
  -10.8091   -0.8799    0.0000 C   0  0  0  0  0  0  0  0  0  0  0  0
   -9.6819   -3.2207    0.0000 C   0  0  0  0  0  0  0  0  0  0  0  0
   -6.9790   -1.9191    0.0000 C   0  0  0  0  0  0  0  0  0  0  0  0
   -7.0910   -3.4149    0.0000 O   0  0  0  0  0  0  0  0  0  0  0  0
   -3.3705    0.0000    0.0000 C   0  0  0  0  0  0  0  0  0  0  0  0
   -4.6098   -0.8450    0.0000 C   0  0  0  0  0  0  0  0  0  0  0  0
   -4.6098    0.8450    0.0000 O   0  0  0  0  0  0  0  0  0  0  0  0
   -5.3904    0.6832    0.0000 C   0  0  0  0  0  0  0  0  0  0  0  0
   -3.0367    1.4624    0.0000 C   0  0  0  0  0  0  0  0  0  0  0  0
   -2.1015    2.6351    0.0000 C   0  0  0  0  0  0  0  0  0  0  0  0
   -3.0367    3.8079    0.0000 C   0  0  0  0  0  0  0  0  0  0  0  0
   -0.7500    3.2860    0.0000 C   0  0  0  0  0  0  0  0  0  0  0  0
   -1.0838    4.7484    0.0000 O   0  0  0  0  0  0  0  0  0  0  0  0
    0.7500    3.2860    0.0000 C   0  0  0  0  0  0  0  0  0  0  0  0
    1.0838    4.7484    0.0000 C   0  0  0  0  0  0  0  0  0  0  0  0
    2.1015    2.6351    0.0000 C   0  0  0  0  0  0  0  0  0  0  0  0
    3.0367    3.8079    0.0000 O   0  0  0  0  0  0  0  0  0  0  0  0
    3.0367    1.4624    0.0000 C   0  0  0  0  0  0  0  0  0  0  0  0
    3.7867    2.7614    0.0000 C   0  0  0  0  0  0  0  0  0  0  0  0
    4.5199    1.2388    0.0000 O   0  0  0  0  0  0  0  0  0  0  0  0
  1  2  1  0
  3  2  1  1
  3  4  1  0
  4  5  1  0
  5  6  2  0
  5  7  1  0
  7  8  1  6
  7  9  1  0
  9 10  1  1
 11 10  1  6
 11 12  1  0
 12 13  1  0
 13 14  1  1
 13 15  1  0
 15 16  1  0
 13 17  1  0
 17 18  1  6
 18 19  1  0
 19 20  2  0
 19 21  1  0
 21 22  1  0
 22 23  1  0
 23 24  1  0
 24 25  1  0
 25 26  1  0
 26 27  1  0
 27 28  2  0
 27 29  1  0
 29 30  1  0
 30 31  1  0
 30 32  1  0
 17 33  1  0
 33 34  1  1
 33 35  1  0
  9 36  1  0
 36 37  1  6
 36 38  1  0
 38 39  1  1
 40 39  1  1
 40 41  1  0
 41 42  1  0
 42 43  1  1
 42 44  1  0
 44 45  1  0
 45 46  1  1
 46 47  1  0
 46 48  1  0
 45 49  1  0
 49 50  1  6
 38 51  1  0
 51 52  1  1
 51 53  1  0
 53 54  1  0
 51 55  1  0
 55 56  1  0
 56 57  1  1
 56 58  1  0
 58 59  2  0
 58 60  1  0
 60 61  1  6
 60 62  1  0
 62 63  1  1
 62 64  1  0
 64 65  1  1
 64 66  1  0
 64  3  1  0
 35 11  1  0
 49 40  1  0
M  END
>  <ChEMBL_IDs>  (616) 
CHEMBL1668178

>  <target_organism>  (616) 
None

>  <target_molecule_pref_name>  (616) 
nan

>  <# Known Targets>  (616) 
nan

>  <Known Targets>  (616) 
nan

>  <smiles>  (616) 
CC[C@H]1OC(=O)[C@H](C)[C@@H](O[C@H]2C[C@@](C)(OC)[C@@H](OC(=O)NCCCCCC(=O)NC(C)C)[C@H](C)O2)[C@H](C)[C@@H](O[C@@H]2O[C@H](C)C[C@H](N(C)C)[C@H]2O)[C@](C)(OC)C[C@@H](C)C(=O)[C@H](C)[C@@H](O)[C@]1(C)O

$$$$

     RDKit          2D

 62 64  0  0  0  0  0  0  0  0999 V2000
   16.8705   -7.7942    0.0000 C   0  0  0  0  0  0  0  0  0  0  0  0
   16.1205   -6.4952    0.0000 C   0  0  0  0  0  0  0  0  0  0  0  0
   14.6205   -6.4952    0.0000 C   0  0  0  0  0  0  0  0  0  0  0  0
   13.8705   -5.1962    0.0000 C   0  0  0  0  0  0  0  0  0  0  0  0
   12.3705   -5.1962    0.0000 C   0  0  0  0  0  0  0  0  0  0  0  0
   11.6205   -3.8971    0.0000 C   0  0  0  0  0  0  0  0  0  0  0  0
   10.1205   -3.8971    0.0000 C   0  0  0  0  0  0  0  0  0  0  0  0
    9.3705   -2.5981    0.0000 C   0  0  0  0  0  0  0  0  0  0  0  0
    7.8705   -2.5981    0.0000 C   0  0  0  0  0  0  0  0  0  0  0  0
    7.1205   -1.2990    0.0000 C   0  0  0  0  0  0  0  0  0  0  0  0
    5.6205   -1.2990    0.0000 C   0  0  0  0  0  0  0  0  0  0  0  0
    4.8705    0.0000    0.0000 N   0  0  0  0  0  0  0  0  0  0  0  0
    3.3705    0.0000    0.0000 C   0  0  0  0  0  0  0  0  0  0  0  0
    3.0367   -1.4624    0.0000 C   0  0  0  0  0  0  0  0  0  0  0  0
    4.3881   -2.1132    0.0000 C   0  0  0  0  0  0  0  0  0  0  0  0
    2.1015   -2.6351    0.0000 C   0  0  0  0  0  0  0  0  0  0  0  0
    3.0367   -3.8079    0.0000 O   0  0  0  0  0  0  0  0  0  0  0  0
    0.7500   -3.2860    0.0000 C   0  0  0  0  0  0  0  0  0  0  0  0
    1.8496   -4.3062    0.0000 C   0  0  0  0  0  0  0  0  0  0  0  0
    0.2020   -4.6823    0.0000 O   0  0  0  0  0  0  0  0  0  0  0  0
   -0.7500   -3.2860    0.0000 C   0  0  0  0  0  0  0  0  0  0  0  0
   -1.0838   -4.7484    0.0000 C   0  0  0  0  0  0  0  0  0  0  0  0
   -2.5171   -5.1905    0.0000 C   0  0  0  0  0  0  0  0  0  0  0  0
   -2.1015   -2.6351    0.0000 O   0  0  0  0  0  0  0  0  0  0  0  0
   -3.0367   -1.4624    0.0000 C   0  0  0  0  0  0  0  0  0  0  0  0
   -4.3881   -2.1132    0.0000 O   0  0  0  0  0  0  0  0  0  0  0  0
   -3.3705    0.0000    0.0000 C   0  0  0  0  0  0  0  0  0  0  0  0
   -4.6804   -0.3267    0.0000 C   0  0  0  0  0  0  0  0  0  0  0  0
   -3.0367    1.4624    0.0000 C   0  0  0  0  0  0  0  0  0  0  0  0
   -4.3881    2.1132    0.0000 O   0  0  0  0  0  0  0  0  0  0  0  0
   -5.6275    1.2682    0.0000 C   0  0  0  0  0  0  0  0  0  0  0  0
   -6.9790    1.9191    0.0000 C   0  0  0  0  0  0  0  0  0  0  0  0
   -8.2183    1.0741    0.0000 C   0  0  0  0  0  0  0  0  0  0  0  0
   -9.6719    0.7039    0.0000 C   0  0  0  0  0  0  0  0  0  0  0  0
   -8.8352    2.4413    0.0000 O   0  0  0  0  0  0  0  0  0  0  0  0
  -10.3278    2.5907    0.0000 C   0  0  0  0  0  0  0  0  0  0  0  0
   -8.1062   -0.4217    0.0000 C   0  0  0  0  0  0  0  0  0  0  0  0
   -9.3456   -1.2667    0.0000 O   0  0  0  0  0  0  0  0  0  0  0  0
   -6.7548   -1.0725    0.0000 C   0  0  0  0  0  0  0  0  0  0  0  0
   -6.6427   -2.5684    0.0000 C   0  0  0  0  0  0  0  0  0  0  0  0
   -5.5154   -0.2276    0.0000 O   0  0  0  0  0  0  0  0  0  0  0  0
   -2.1015    2.6351    0.0000 C   0  0  0  0  0  0  0  0  0  0  0  0
   -3.0367    3.8079    0.0000 C   0  0  0  0  0  0  0  0  0  0  0  0
   -0.7500    3.2860    0.0000 C   0  0  0  0  0  0  0  0  0  0  0  0
   -1.0838    4.7484    0.0000 O   0  0  0  0  0  0  0  0  0  0  0  0
    0.0158    5.7686    0.0000 C   0  0  0  0  0  0  0  0  0  0  0  0
    1.4492    5.3265    0.0000 O   0  0  0  0  0  0  0  0  0  0  0  0
    2.5487    6.3467    0.0000 C   0  0  0  0  0  0  0  0  0  0  0  0
    3.9821    5.9046    0.0000 C   0  0  0  0  0  0  0  0  0  0  0  0
    2.2150    7.8091    0.0000 C   0  0  0  0  0  0  0  0  0  0  0  0
    0.7816    8.2513    0.0000 C   0  0  0  0  0  0  0  0  0  0  0  0
    0.4478    9.7137    0.0000 N   0  0  0  0  0  0  0  0  0  0  0  0
    1.5474   10.7339    0.0000 C   0  0  0  0  0  0  0  0  0  0  0  0
   -0.9855   10.1558    0.0000 C   0  0  0  0  0  0  0  0  0  0  0  0
   -0.3180    7.2310    0.0000 C   0  0  0  0  0  0  0  0  0  0  0  0
   -1.7513    7.6731    0.0000 O   0  0  0  0  0  0  0  0  0  0  0  0
    0.7500    3.2860    0.0000 C   0  0  0  0  0  0  0  0  0  0  0  0
    0.2020    4.6823    0.0000 C   0  0  0  0  0  0  0  0  0  0  0  0
    1.8496    4.3062    0.0000 O   0  0  0  0  0  0  0  0  0  0  0  0
    2.1015    2.6351    0.0000 C   0  0  0  0  0  0  0  0  0  0  0  0
    3.0367    1.4624    0.0000 C   0  0  0  0  0  0  0  0  0  0  0  0
    4.3881    2.1132    0.0000 C   0  0  0  0  0  0  0  0  0  0  0  0
  1  2  2  0
  2  3  1  0
  3  4  1  0
  4  5  1  0
  5  6  1  0
  6  7  1  0
  7  8  1  0
  8  9  1  0
  9 10  1  0
 10 11  1  0
 11 12  1  0
 13 12  1  6
 13 14  1  0
 14 15  1  6
 14 16  1  0
 16 17  1  1
 16 18  1  0
 18 19  1  1
 18 20  1  0
 18 21  1  0
 21 22  1  1
 22 23  1  0
 21 24  1  0
 24 25  1  0
 25 26  2  0
 25 27  1  0
 27 28  1  6
 27 29  1  0
 29 30  1  1
 30 31  1  0
 31 32  1  0
 32 33  1  0
 33 34  1  0
 33 35  1  0
 35 36  1  0
 33 37  1  0
 37 38  1  0
 37 39  1  0
 39 40  1  0
 39 41  1  0
 29 42  1  0
 42 43  1  6
 42 44  1  0
 44 45  1  1
 45 46  1  0
 46 47  1  0
 47 48  1  0
 48 49  1  0
 48 50  1  0
 50 51  1  0
 51 52  1  0
 52 53  1  0
 52 54  1  0
 51 55  1  0
 55 56  1  0
 44 57  1  0
 57 58  1  1
 57 59  1  0
 57 60  1  0
 60 61  1  0
 61 62  1  1
 61 13  1  0
 41 31  1  0
 55 46  1  0
M  END
>  <ChEMBL_IDs>  (617) 
CHEMBL322623

>  <target_organism>  (617) 
None

>  <target_molecule_pref_name>  (617) 
nan

>  <# Known Targets>  (617) 
nan

>  <Known Targets>  (617) 
nan

>  <smiles>  (617) 
C=CCCCCCCCCCN[C@@H]1[C@H](C)[C@@H](O)[C@](C)(O)[C@@H](CC)OC(=O)[C@H](C)[C@@H](OC2CC(C)(OC)C(O)C(C)O2)[C@H](C)[C@@H](OC2OC(C)CC(N(C)C)C2O)[C@](C)(O)C[C@H]1C

$$$$

     RDKit          2D

 64 66  0  0  0  0  0  0  0  0999 V2000
  -12.9508    8.4537    0.0000 C   0  0  0  0  0  0  0  0  0  0  0  0
  -11.7373    7.5720    0.0000 C   0  0  0  0  0  0  0  0  0  0  0  0
  -10.3669    8.1821    0.0000 C   0  0  0  0  0  0  0  0  0  0  0  0
   -9.1534    7.3004    0.0000 C   0  0  0  0  0  0  0  0  0  0  0  0
   -7.7831    7.9105    0.0000 C   0  0  0  0  0  0  0  0  0  0  0  0
   -6.5696    7.0289    0.0000 C   0  0  0  0  0  0  0  0  0  0  0  0
   -5.1992    7.6390    0.0000 C   0  0  0  0  0  0  0  0  0  0  0  0
   -3.9857    6.7573    0.0000 C   0  0  0  0  0  0  0  0  0  0  0  0
   -4.1425    5.2655    0.0000 O   0  0  0  0  0  0  0  0  0  0  0  0
   -2.6154    7.3674    0.0000 N   0  0  0  0  0  0  0  0  0  0  0  0
   -1.4019    6.4857    0.0000 C   0  0  0  0  0  0  0  0  0  0  0  0
   -0.0316    7.0958    0.0000 C   0  0  0  0  0  0  0  0  0  0  0  0
    1.1820    6.2141    0.0000 C   0  0  0  0  0  0  0  0  0  0  0  0
    2.5523    6.8242    0.0000 N   0  0  0  0  0  0  0  0  0  0  0  0
    2.7091    8.3160    0.0000 C   0  0  0  0  0  0  0  0  0  0  0  0
    3.7658    5.9426    0.0000 C   0  0  0  0  0  0  0  0  0  0  0  0
    5.1361    6.5527    0.0000 C   0  0  0  0  0  0  0  0  0  0  0  0
    6.3497    5.6710    0.0000 C   0  0  0  0  0  0  0  0  0  0  0  0
    7.7200    6.2811    0.0000 C   0  0  0  0  0  0  0  0  0  0  0  0
    6.1929    4.1792    0.0000 O   0  0  0  0  0  0  0  0  0  0  0  0
    4.8225    3.5691    0.0000 C   0  0  0  0  0  0  0  0  0  0  0  0
    4.6658    2.0773    0.0000 O   0  0  0  0  0  0  0  0  0  0  0  0
    3.2954    1.4672    0.0000 C   0  0  0  0  0  0  0  0  0  0  0  0
    3.6073    0.0000    0.0000 C   0  0  0  0  0  0  0  0  0  0  0  0
    5.1073    0.0000    0.0000 C   0  0  0  0  0  0  0  0  0  0  0  0
    3.2954   -1.4672    0.0000 C   0  0  0  0  0  0  0  0  0  0  0  0
    4.6658   -2.0773    0.0000 O   0  0  0  0  0  0  0  0  0  0  0  0
    4.8225   -3.5691    0.0000 C   0  0  0  0  0  0  0  0  0  0  0  0
    6.1929   -4.1792    0.0000 C   0  0  0  0  0  0  0  0  0  0  0  0
    6.3497   -5.6710    0.0000 C   0  0  0  0  0  0  0  0  0  0  0  0
    7.0072   -7.0192    0.0000 C   0  0  0  0  0  0  0  0  0  0  0  0
    7.7915   -5.2575    0.0000 O   0  0  0  0  0  0  0  0  0  0  0  0
    8.8706   -6.2995    0.0000 C   0  0  0  0  0  0  0  0  0  0  0  0
    5.1361   -6.5527    0.0000 C   0  0  0  0  0  0  0  0  0  0  0  0
    5.2929   -8.0445    0.0000 O   0  0  0  0  0  0  0  0  0  0  0  0
    3.7658   -5.9426    0.0000 C   0  0  0  0  0  0  0  0  0  0  0  0
    2.5523   -6.8242    0.0000 C   0  0  0  0  0  0  0  0  0  0  0  0
    3.6090   -4.4508    0.0000 O   0  0  0  0  0  0  0  0  0  0  0  0
    2.4138   -2.6807    0.0000 C   0  0  0  0  0  0  0  0  0  0  0  0
    3.0475   -3.8728    0.0000 C   0  0  0  0  0  0  0  0  0  0  0  0
    1.1147   -3.4307    0.0000 C   0  0  0  0  0  0  0  0  0  0  0  0
    1.5782   -4.8573    0.0000 O   0  0  0  0  0  0  0  0  0  0  0  0
   -0.3771   -3.5875    0.0000 O   0  0  0  0  0  0  0  0  0  0  0  0
   -1.8037   -3.1240    0.0000 C   0  0  0  0  0  0  0  0  0  0  0  0
   -2.5537   -4.4231    0.0000 C   0  0  0  0  0  0  0  0  0  0  0  0
   -4.0537   -4.4231    0.0000 C   0  0  0  0  0  0  0  0  0  0  0  0
   -2.9184   -2.1203    0.0000 C   0  0  0  0  0  0  0  0  0  0  0  0
   -3.4314   -3.5299    0.0000 C   0  0  0  0  0  0  0  0  0  0  0  0
   -4.4175   -2.1727    0.0000 O   0  0  0  0  0  0  0  0  0  0  0  0
   -3.5285   -0.7500    0.0000 C   0  0  0  0  0  0  0  0  0  0  0  0
   -4.9957   -1.0619    0.0000 O   0  0  0  0  0  0  0  0  0  0  0  0
   -3.5285    0.7500    0.0000 C   0  0  0  0  0  0  0  0  0  0  0  0
   -4.9957    1.0619    0.0000 C   0  0  0  0  0  0  0  0  0  0  0  0
   -2.9184    2.1203    0.0000 N   0  0  0  0  0  0  0  0  0  0  0  0
   -4.1319    3.0020    0.0000 C   0  0  0  0  0  0  0  0  0  0  0  0
   -1.8037    3.1240    0.0000 C   0  0  0  0  0  0  0  0  0  0  0  0
   -0.3771    3.5875    0.0000 C   0  0  0  0  0  0  0  0  0  0  0  0
   -0.5339    5.0793    0.0000 C   0  0  0  0  0  0  0  0  0  0  0  0
    1.1147    3.4307    0.0000 C   0  0  0  0  0  0  0  0  0  0  0  0
    2.4138    2.6807    0.0000 C   0  0  0  0  0  0  0  0  0  0  0  0
    2.4276    3.4778    0.0000 C   0  0  0  0  0  0  0  0  0  0  0  0
    3.8692    3.0436    0.0000 O   0  0  0  0  0  0  0  0  0  0  0  0
    3.6090    4.4508    0.0000 C   0  0  0  0  0  0  0  0  0  0  0  0
    2.8467    4.2177    0.0000 O   0  0  0  0  0  0  0  0  0  0  0  0
  1  2  1  0
  2  3  1  0
  3  4  1  0
  4  5  1  0
  5  6  1  0
  6  7  1  0
  7  8  1  0
  8  9  2  0
  8 10  1  0
 10 11  1  0
 11 12  1  0
 12 13  1  0
 13 14  1  0
 14 15  1  0
 16 14  1  1
 16 17  1  0
 17 18  1  0
 18 19  1  1
 18 20  1  0
 20 21  1  0
 21 22  1  1
 23 22  1  6
 23 24  1  0
 24 25  1  1
 24 26  1  0
 26 27  1  6
 28 27  1  1
 28 29  1  0
 29 30  1  0
 30 31  1  6
 30 32  1  0
 32 33  1  0
 30 34  1  0
 34 35  1  1
 34 36  1  0
 36 37  1  6
 36 38  1  0
 26 39  1  0
 39 40  1  1
 39 41  1  0
 41 42  2  0
 41 43  1  0
 43 44  1  0
 44 45  1  6
 45 46  1  0
 44 47  1  0
 47 48  1  6
 47 49  1  0
 47 50  1  0
 50 51  1  6
 50 52  1  0
 52 53  1  1
 52 54  1  0
 54 55  1  0
 54 56  1  0
 56 57  1  0
 57 58  1  6
 57 59  1  0
 59 60  1  0
 60 61  1  6
 60 62  1  0
 21 63  1  0
 63 64  1  6
 63 16  1  0
 60 23  1  0
 38 28  1  0
M  END
>  <ChEMBL_IDs>  (618) 
CHEMBL2179469

>  <target_organism>  (618) 
Plasmodium falciparum

>  <target_molecule_pref_name>  (618) 
nan

>  <# Known Targets>  (618) 
nan

>  <Known Targets>  (618) 
nan

>  <smiles>  (618) 
CCCCCCCC(=O)NCCCN(C)[C@H]1C[C@@H](C)O[C@@H](O[C@@H]2[C@@H](C)[C@H](O[C@H]3C[C@@](C)(OC)[C@@H](O)[C@H](C)O3)[C@@H](C)C(=O)O[C@H](CC)[C@@](C)(O)[C@H](O)[C@@H](C)N(C)C[C@H](C)C[C@@]2(C)O)[C@@H]1O

$$$$

     RDKit          2D

 64 66  0  0  0  0  0  0  0  0999 V2000
   17.1073    7.7942    0.0000 C   0  0  0  0  0  0  0  0  0  0  0  0
   16.3573    6.4952    0.0000 C   0  0  0  0  0  0  0  0  0  0  0  0
   14.8573    6.4952    0.0000 C   0  0  0  0  0  0  0  0  0  0  0  0
   14.1073    5.1962    0.0000 C   0  0  0  0  0  0  0  0  0  0  0  0
   12.6073    5.1962    0.0000 C   0  0  0  0  0  0  0  0  0  0  0  0
   11.8573    3.8971    0.0000 C   0  0  0  0  0  0  0  0  0  0  0  0
   10.3573    3.8971    0.0000 C   0  0  0  0  0  0  0  0  0  0  0  0
    9.6073    2.5981    0.0000 C   0  0  0  0  0  0  0  0  0  0  0  0
   10.3573    1.2990    0.0000 O   0  0  0  0  0  0  0  0  0  0  0  0
    8.1073    2.5981    0.0000 N   0  0  0  0  0  0  0  0  0  0  0  0
    7.3573    1.2990    0.0000 C   0  0  0  0  0  0  0  0  0  0  0  0
    5.8573    1.2990    0.0000 C   0  0  0  0  0  0  0  0  0  0  0  0
    5.1073    0.0000    0.0000 C   0  0  0  0  0  0  0  0  0  0  0  0
    3.6073    0.0000    0.0000 N   0  0  0  0  0  0  0  0  0  0  0  0
    3.2954    1.4672    0.0000 C   0  0  0  0  0  0  0  0  0  0  0  0
    2.4138    2.6807    0.0000 C   0  0  0  0  0  0  0  0  0  0  0  0
    3.4175    3.7955    0.0000 C   0  0  0  0  0  0  0  0  0  0  0  0
    1.1147    3.4307    0.0000 C   0  0  0  0  0  0  0  0  0  0  0  0
   -0.3771    3.5875    0.0000 C   0  0  0  0  0  0  0  0  0  0  0  0
   -1.3412    4.7366    0.0000 C   0  0  0  0  0  0  0  0  0  0  0  0
    0.3271    4.9120    0.0000 O   0  0  0  0  0  0  0  0  0  0  0  0
   -1.8037    3.1240    0.0000 C   0  0  0  0  0  0  0  0  0  0  0  0
   -2.5537    4.4231    0.0000 O   0  0  0  0  0  0  0  0  0  0  0  0
   -1.8037    5.7221    0.0000 C   0  0  0  0  0  0  0  0  0  0  0  0
   -0.3037    5.7221    0.0000 O   0  0  0  0  0  0  0  0  0  0  0  0
    0.4463    7.0211    0.0000 C   0  0  0  0  0  0  0  0  0  0  0  0
    1.9463    7.0211    0.0000 C   0  0  0  0  0  0  0  0  0  0  0  0
   -0.3037    8.3202    0.0000 C   0  0  0  0  0  0  0  0  0  0  0  0
   -1.8037    8.3202    0.0000 C   0  0  0  0  0  0  0  0  0  0  0  0
   -2.5537    9.6192    0.0000 N   0  0  0  0  0  0  0  0  0  0  0  0
   -1.8037   10.9182    0.0000 C   0  0  0  0  0  0  0  0  0  0  0  0
   -4.0537    9.6192    0.0000 C   0  0  0  0  0  0  0  0  0  0  0  0
   -2.5537    7.0211    0.0000 C   0  0  0  0  0  0  0  0  0  0  0  0
   -4.0537    7.0211    0.0000 O   0  0  0  0  0  0  0  0  0  0  0  0
   -2.9184    2.1203    0.0000 C   0  0  0  0  0  0  0  0  0  0  0  0
   -4.1319    3.0020    0.0000 C   0  0  0  0  0  0  0  0  0  0  0  0
   -3.5285    0.7500    0.0000 C   0  0  0  0  0  0  0  0  0  0  0  0
   -4.9957    1.0619    0.0000 O   0  0  0  0  0  0  0  0  0  0  0  0
   -5.9994   -0.0528    0.0000 C   0  0  0  0  0  0  0  0  0  0  0  0
   -7.4666    0.2590    0.0000 C   0  0  0  0  0  0  0  0  0  0  0  0
   -8.4703   -0.8557    0.0000 C   0  0  0  0  0  0  0  0  0  0  0  0
   -9.7947   -1.5599    0.0000 C   0  0  0  0  0  0  0  0  0  0  0  0
   -9.3938    0.3263    0.0000 O   0  0  0  0  0  0  0  0  0  0  0  0
  -10.8792    0.1176    0.0000 C   0  0  0  0  0  0  0  0  0  0  0  0
   -8.0068   -2.2823    0.0000 C   0  0  0  0  0  0  0  0  0  0  0  0
   -9.0105   -3.3970    0.0000 O   0  0  0  0  0  0  0  0  0  0  0  0
   -6.5396   -2.5942    0.0000 C   0  0  0  0  0  0  0  0  0  0  0  0
   -6.0760   -4.0207    0.0000 C   0  0  0  0  0  0  0  0  0  0  0  0
   -5.5359   -1.4794    0.0000 O   0  0  0  0  0  0  0  0  0  0  0  0
   -3.5285   -0.7500    0.0000 C   0  0  0  0  0  0  0  0  0  0  0  0
   -4.7418   -1.3419    0.0000 C   0  0  0  0  0  0  0  0  0  0  0  0
   -2.9184   -2.1203    0.0000 C   0  0  0  0  0  0  0  0  0  0  0  0
   -4.1319   -3.0020    0.0000 O   0  0  0  0  0  0  0  0  0  0  0  0
   -1.8037   -3.1240    0.0000 O   0  0  0  0  0  0  0  0  0  0  0  0
   -0.3771   -3.5875    0.0000 C   0  0  0  0  0  0  0  0  0  0  0  0
   -0.5339   -5.0793    0.0000 C   0  0  0  0  0  0  0  0  0  0  0  0
   -1.9042   -5.6894    0.0000 C   0  0  0  0  0  0  0  0  0  0  0  0
    1.1147   -3.4307    0.0000 C   0  0  0  0  0  0  0  0  0  0  0  0
    2.2967   -4.3542    0.0000 C   0  0  0  0  0  0  0  0  0  0  0  0
    0.7013   -4.8726    0.0000 O   0  0  0  0  0  0  0  0  0  0  0  0
    2.4138   -2.6807    0.0000 C   0  0  0  0  0  0  0  0  0  0  0  0
    3.4175   -3.7955    0.0000 O   0  0  0  0  0  0  0  0  0  0  0  0
    3.2954   -1.4672    0.0000 C   0  0  0  0  0  0  0  0  0  0  0  0
    4.6658   -2.0773    0.0000 C   0  0  0  0  0  0  0  0  0  0  0  0
  1  2  1  0
  2  3  1  0
  3  4  1  0
  4  5  1  0
  5  6  1  0
  6  7  1  0
  7  8  1  0
  8  9  2  0
  8 10  1  0
 10 11  1  0
 11 12  1  0
 12 13  1  0
 13 14  1  0
 14 15  1  0
 15 16  1  0
 16 17  1  1
 16 18  1  0
 18 19  1  0
 19 20  1  1
 19 21  1  0
 19 22  1  0
 22 23  1  1
 24 23  1  1
 24 25  1  0
 25 26  1  0
 26 27  1  1
 26 28  1  0
 28 29  1  0
 29 30  1  1
 30 31  1  0
 30 32  1  0
 29 33  1  0
 33 34  1  6
 22 35  1  0
 35 36  1  6
 35 37  1  0
 37 38  1  1
 39 38  1  6
 39 40  1  0
 40 41  1  0
 41 42  1  1
 41 43  1  0
 43 44  1  0
 41 45  1  0
 45 46  1  6
 45 47  1  0
 47 48  1  1
 47 49  1  0
 37 50  1  0
 50 51  1  6
 50 52  1  0
 52 53  2  0
 52 54  1  0
 54 55  1  0
 55 56  1  1
 56 57  1  0
 55 58  1  0
 58 59  1  1
 58 60  1  0
 58 61  1  0
 61 62  1  1
 61 63  1  0
 63 64  1  6
 63 14  1  0
 33 24  1  0
 49 39  1  0
M  END
>  <ChEMBL_IDs>  (619) 
CHEMBL2179470

>  <target_organism>  (619) 
Plasmodium falciparum

>  <target_molecule_pref_name>  (619) 
nan

>  <# Known Targets>  (619) 
nan

>  <Known Targets>  (619) 
nan

>  <smiles>  (619) 
CCCCCCCC(=O)NCCCN1C[C@H](C)C[C@@](C)(O)[C@H](O[C@@H]2O[C@H](C)C[C@H](N(C)C)[C@H]2O)[C@@H](C)[C@H](O[C@H]2C[C@@](C)(OC)[C@@H](O)[C@H](C)O2)[C@@H](C)C(=O)O[C@H](CC)[C@@](C)(O)[C@H](O)[C@H]1C

$$$$

     RDKit          2D

 63 65  0  0  0  0  0  0  0  0999 V2000
    5.6205   -1.2990    0.0000 C   0  0  0  0  0  0  0  0  0  0  0  0
    4.8705    0.0000    0.0000 C   0  0  0  0  0  0  0  0  0  0  0  0
    3.3705    0.0000    0.0000 C   0  0  0  0  0  0  0  0  0  0  0  0
    3.0367   -1.4624    0.0000 O   0  0  0  0  0  0  0  0  0  0  0  0
    2.1015   -2.6351    0.0000 C   0  0  0  0  0  0  0  0  0  0  0  0
    3.0367   -3.8079    0.0000 O   0  0  0  0  0  0  0  0  0  0  0  0
    0.7500   -3.2860    0.0000 C   0  0  0  0  0  0  0  0  0  0  0  0
    1.3600   -4.4903    0.0000 C   0  0  0  0  0  0  0  0  0  0  0  0
   -0.7500   -3.2860    0.0000 C   0  0  0  0  0  0  0  0  0  0  0  0
   -1.0838   -4.7484    0.0000 O   0  0  0  0  0  0  0  0  0  0  0  0
    0.0158   -5.7686    0.0000 C   0  0  0  0  0  0  0  0  0  0  0  0
   -0.3180   -7.2310    0.0000 C   0  0  0  0  0  0  0  0  0  0  0  0
    0.7816   -8.2513    0.0000 C   0  0  0  0  0  0  0  0  0  0  0  0
    1.4659   -9.5861    0.0000 C   0  0  0  0  0  0  0  0  0  0  0  0
   -0.4141   -9.1570    0.0000 O   0  0  0  0  0  0  0  0  0  0  0  0
   -0.2276  -10.6453    0.0000 C   0  0  0  0  0  0  0  0  0  0  0  0
    2.2150   -7.8091    0.0000 C   0  0  0  0  0  0  0  0  0  0  0  0
    3.3145   -8.8294    0.0000 O   0  0  0  0  0  0  0  0  0  0  0  0
    2.5487   -6.3467    0.0000 C   0  0  0  0  0  0  0  0  0  0  0  0
    3.9821   -5.9046    0.0000 C   0  0  0  0  0  0  0  0  0  0  0  0
    1.4492   -5.3265    0.0000 O   0  0  0  0  0  0  0  0  0  0  0  0
   -2.1015   -2.6351    0.0000 C   0  0  0  0  0  0  0  0  0  0  0  0
   -3.0367   -3.8079    0.0000 C   0  0  0  0  0  0  0  0  0  0  0  0
   -3.0367   -1.4624    0.0000 C   0  0  0  0  0  0  0  0  0  0  0  0
   -4.3881   -2.1132    0.0000 O   0  0  0  0  0  0  0  0  0  0  0  0
   -5.6275   -1.2682    0.0000 C   0  0  0  0  0  0  0  0  0  0  0  0
   -5.5154    0.2276    0.0000 O   0  0  0  0  0  0  0  0  0  0  0  0
   -6.7548    1.0725    0.0000 C   0  0  0  0  0  0  0  0  0  0  0  0
   -6.6427    2.5684    0.0000 C   0  0  0  0  0  0  0  0  0  0  0  0
   -8.1062    0.4217    0.0000 C   0  0  0  0  0  0  0  0  0  0  0  0
   -8.2183   -1.0741    0.0000 C   0  0  0  0  0  0  0  0  0  0  0  0
   -9.5698   -1.7249    0.0000 N   0  0  0  0  0  0  0  0  0  0  0  0
  -10.8091   -0.8799    0.0000 C   0  0  0  0  0  0  0  0  0  0  0  0
   -9.6819   -3.2207    0.0000 C   0  0  0  0  0  0  0  0  0  0  0  0
   -6.9790   -1.9191    0.0000 C   0  0  0  0  0  0  0  0  0  0  0  0
   -7.0910   -3.4149    0.0000 O   0  0  0  0  0  0  0  0  0  0  0  0
   -3.3705    0.0000    0.0000 C   0  0  0  0  0  0  0  0  0  0  0  0
   -4.6098   -0.8450    0.0000 C   0  0  0  0  0  0  0  0  0  0  0  0
   -4.6098    0.8450    0.0000 O   0  0  0  0  0  0  0  0  0  0  0  0
   -3.0367    1.4624    0.0000 C   0  0  0  0  0  0  0  0  0  0  0  0
   -2.1015    2.6351    0.0000 C   0  0  0  0  0  0  0  0  0  0  0  0
   -3.0367    3.8079    0.0000 C   0  0  0  0  0  0  0  0  0  0  0  0
   -0.7500    3.2860    0.0000 C   0  0  0  0  0  0  0  0  0  0  0  0
   -1.0838    4.7484    0.0000 N   0  0  0  0  0  0  0  0  0  0  0  0
    0.0158    5.7686    0.0000 C   0  0  0  0  0  0  0  0  0  0  0  0
   -0.3180    7.2310    0.0000 C   0  0  0  0  0  0  0  0  0  0  0  0
    0.7816    8.2513    0.0000 C   0  0  0  0  0  0  0  0  0  0  0  0
    0.4478    9.7137    0.0000 C   0  0  0  0  0  0  0  0  0  0  0  0
    2.2150    7.8091    0.0000 C   0  0  0  0  0  0  0  0  0  0  0  0
    3.3145    8.8294    0.0000 C   0  0  0  0  0  0  0  0  0  0  0  0
    4.7479    8.3873    0.0000 C   0  0  0  0  0  0  0  0  0  0  0  0
    5.8475    9.4075    0.0000 C   0  0  0  0  0  0  0  0  0  0  0  0
    4.8272   10.5071    0.0000 C   0  0  0  0  0  0  0  0  0  0  0  0
    6.8677    8.3079    0.0000 C   0  0  0  0  0  0  0  0  0  0  0  0
    6.9470   10.4278    0.0000 O   0  0  0  0  0  0  0  0  0  0  0  0
    6.6133   11.8902    0.0000 C   0  0  0  0  0  0  0  0  0  0  0  0
    0.7500    3.2860    0.0000 C   0  0  0  0  0  0  0  0  0  0  0  0
    1.0838    4.7484    0.0000 C   0  0  0  0  0  0  0  0  0  0  0  0
    2.1015    2.6351    0.0000 C   0  0  0  0  0  0  0  0  0  0  0  0
    3.0367    3.8079    0.0000 O   0  0  0  0  0  0  0  0  0  0  0  0
    3.0367    1.4624    0.0000 C   0  0  0  0  0  0  0  0  0  0  0  0
    3.7867    2.7614    0.0000 C   0  0  0  0  0  0  0  0  0  0  0  0
    4.5199    1.2388    0.0000 O   0  0  0  0  0  0  0  0  0  0  0  0
  1  2  1  0
  3  2  1  1
  3  4  1  0
  4  5  1  0
  5  6  2  0
  5  7  1  0
  7  8  1  6
  7  9  1  0
  9 10  1  1
 10 11  1  0
 11 12  1  0
 12 13  1  0
 13 14  1  0
 13 15  1  0
 15 16  1  0
 13 17  1  0
 17 18  1  0
 17 19  1  0
 19 20  1  0
 19 21  1  0
  9 22  1  0
 22 23  1  6
 22 24  1  0
 24 25  1  1
 25 26  1  0
 26 27  1  0
 27 28  1  0
 28 29  1  0
 28 30  1  0
 30 31  1  0
 31 32  1  0
 32 33  1  0
 32 34  1  0
 31 35  1  0
 35 36  1  0
 24 37  1  0
 37 38  1  1
 37 39  1  0
 37 40  1  0
 40 41  1  0
 41 42  1  1
 41 43  1  0
 43 44  1  6
 44 45  1  0
 45 46  1  0
 46 47  1  0
 47 48  1  0
 47 49  1  0
 49 50  1  0
 50 51  1  0
 51 52  1  0
 52 53  1  0
 52 54  1  0
 52 55  1  0
 55 56  1  0
 43 57  1  0
 57 58  1  6
 57 59  1  0
 59 60  1  1
 59 61  1  0
 61 62  1  1
 61 63  1  0
 61  3  1  0
 21 11  1  0
 35 26  1  0
M  END
>  <ChEMBL_IDs>  (620) 
CHEMBL321954

>  <target_organism>  (620) 
None

>  <target_molecule_pref_name>  (620) 
nan

>  <# Known Targets>  (620) 
nan

>  <Known Targets>  (620) 
nan

>  <smiles>  (620) 
CC[C@H]1OC(=O)[C@H](C)[C@@H](OC2CC(C)(OC)C(O)C(C)O2)[C@H](C)[C@@H](OC2OC(C)CC(N(C)C)C2O)[C@](C)(O)C[C@@H](C)[C@H](NCCC(C)CCCC(C)(C)OC)[C@H](C)[C@@H](O)[C@]1(C)O

$$$$

     RDKit          2D

 70 72  0  0  0  0  0  0  0  0999 V2000
   12.0944   -3.8971    0.0000 C   0  0  0  0  0  0  0  0  0  0  0  0
   10.5944   -3.8971    0.0000 C   0  0  0  0  0  0  0  0  0  0  0  0
    9.8444   -2.5981    0.0000 O   0  0  0  0  0  0  0  0  0  0  0  0
    8.3444   -2.5981    0.0000 C   0  0  0  0  0  0  0  0  0  0  0  0
    7.5944   -3.8971    0.0000 O   0  0  0  0  0  0  0  0  0  0  0  0
    7.5944   -1.2990    0.0000 C   0  0  0  0  0  0  0  0  0  0  0  0
    6.0944   -1.2990    0.0000 C   0  0  0  0  0  0  0  0  0  0  0  0
    5.3444    0.0000    0.0000 C   0  0  0  0  0  0  0  0  0  0  0  0
    3.8444    0.0000    0.0000 C   0  0  0  0  0  0  0  0  0  0  0  0
    3.5517   -1.4712    0.0000 C   0  0  0  0  0  0  0  0  0  0  0  0
    2.7184   -2.7184    0.0000 C   0  0  0  0  0  0  0  0  0  0  0  0
    3.7790   -3.7790    0.0000 C   0  0  0  0  0  0  0  0  0  0  0  0
    1.4712   -3.5517    0.0000 C   0  0  0  0  0  0  0  0  0  0  0  0
    2.0452   -4.9376    0.0000 O   0  0  0  0  0  0  0  0  0  0  0  0
   -0.0000   -3.8444    0.0000 C   0  0  0  0  0  0  0  0  0  0  0  0
   -1.4712   -3.5517    0.0000 C   0  0  0  0  0  0  0  0  0  0  0  0
   -2.7184   -2.7184    0.0000 C   0  0  0  0  0  0  0  0  0  0  0  0
   -3.7790   -3.7790    0.0000 C   0  0  0  0  0  0  0  0  0  0  0  0
   -3.5517   -1.4712    0.0000 C   0  0  0  0  0  0  0  0  0  0  0  0
   -3.8444    0.0000    0.0000 C   0  0  0  0  0  0  0  0  0  0  0  0
   -5.3444    0.0000    0.0000 C   0  0  0  0  0  0  0  0  0  0  0  0
   -6.0944    1.2990    0.0000 O   0  0  0  0  0  0  0  0  0  0  0  0
   -7.5944    1.2990    0.0000 C   0  0  0  0  0  0  0  0  0  0  0  0
   -8.3444    2.5981    0.0000 O   0  0  0  0  0  0  0  0  0  0  0  0
   -9.8444    2.5981    0.0000 C   0  0  0  0  0  0  0  0  0  0  0  0
  -10.5944    3.8971    0.0000 C   0  0  0  0  0  0  0  0  0  0  0  0
  -10.5944    1.2990    0.0000 C   0  0  0  0  0  0  0  0  0  0  0  0
  -12.0944    1.2990    0.0000 O   0  0  0  0  0  0  0  0  0  0  0  0
   -9.8444    0.0000    0.0000 C   0  0  0  0  0  0  0  0  0  0  0  0
  -10.5944   -1.2990    0.0000 O   0  0  0  0  0  0  0  0  0  0  0  0
   -9.8444   -2.5981    0.0000 C   0  0  0  0  0  0  0  0  0  0  0  0
   -8.3444    0.0000    0.0000 C   0  0  0  0  0  0  0  0  0  0  0  0
   -7.5944   -1.2990    0.0000 O   0  0  0  0  0  0  0  0  0  0  0  0
   -8.3444   -2.5981    0.0000 C   0  0  0  0  0  0  0  0  0  0  0  0
   -3.5517    1.4712    0.0000 C   0  0  0  0  0  0  0  0  0  0  0  0
   -4.9376    2.0452    0.0000 C   0  0  0  0  0  0  0  0  0  0  0  0
   -5.1333    3.5324    0.0000 C   0  0  0  0  0  0  0  0  0  0  0  0
   -2.7184    2.7184    0.0000 O   0  0  0  0  0  0  0  0  0  0  0  0
   -1.4712    3.5517    0.0000 C   0  0  0  0  0  0  0  0  0  0  0  0
   -2.0452    4.9376    0.0000 O   0  0  0  0  0  0  0  0  0  0  0  0
    0.0000    3.8444    0.0000 C   0  0  0  0  0  0  0  0  0  0  0  0
    1.4712    3.5517    0.0000 C   0  0  0  0  0  0  0  0  0  0  0  0
    2.0452    4.9376    0.0000 N   0  0  0  0  0  0  0  0  0  0  0  0
    1.1321    6.1276    0.0000 N   0  0  0  0  0  0  0  0  0  0  0  0
    1.7061    7.5134    0.0000 C   0  0  0  0  0  0  0  0  0  0  0  0
    3.1933    7.7092    0.0000 O   0  0  0  0  0  0  0  0  0  0  0  0
    0.7929    8.7034    0.0000 O   0  0  0  0  0  0  0  0  0  0  0  0
    1.3670   10.0893    0.0000 C   0  0  0  0  0  0  0  0  0  0  0  0
    0.4538   11.2793    0.0000 C   0  0  0  0  0  0  0  0  0  0  0  0
   -0.3551    5.9318    0.0000 C   0  0  0  0  0  0  0  0  0  0  0  0
   -0.9291    4.5460    0.0000 O   0  0  0  0  0  0  0  0  0  0  0  0
   -1.2682    7.1218    0.0000 O   0  0  0  0  0  0  0  0  0  0  0  0
   -2.7554    6.9260    0.0000 C   0  0  0  0  0  0  0  0  0  0  0  0
   -3.6686    8.1161    0.0000 C   0  0  0  0  0  0  0  0  0  0  0  0
    2.7184    2.7184    0.0000 C   0  0  0  0  0  0  0  0  0  0  0  0
    3.3441    3.7599    0.0000 C   0  0  0  0  0  0  0  0  0  0  0  0
    3.5517    1.4712    0.0000 C   0  0  0  0  0  0  0  0  0  0  0  0
    4.9376    2.0452    0.0000 O   0  0  0  0  0  0  0  0  0  0  0  0
    5.1333    3.5324    0.0000 C   0  0  0  0  0  0  0  0  0  0  0  0
    3.9433    4.4455    0.0000 O   0  0  0  0  0  0  0  0  0  0  0  0
    4.1391    5.9327    0.0000 C   0  0  0  0  0  0  0  0  0  0  0  0
    2.9491    6.8458    0.0000 C   0  0  0  0  0  0  0  0  0  0  0  0
    5.5249    6.5067    0.0000 C   0  0  0  0  0  0  0  0  0  0  0  0
    5.7207    7.9939    0.0000 O   0  0  0  0  0  0  0  0  0  0  0  0
    6.7150    5.5936    0.0000 C   0  0  0  0  0  0  0  0  0  0  0  0
    8.1008    6.1676    0.0000 N   0  0  0  0  0  0  0  0  0  0  0  0
    9.2908    5.2544    0.0000 C   0  0  0  0  0  0  0  0  0  0  0  0
    8.2966    7.6548    0.0000 C   0  0  0  0  0  0  0  0  0  0  0  0
    6.5192    4.1064    0.0000 C   0  0  0  0  0  0  0  0  0  0  0  0
    7.7092    3.1933    0.0000 O   0  0  0  0  0  0  0  0  0  0  0  0
  1  2  1  0
  2  3  1  0
  3  4  1  0
  4  5  2  0
  4  6  1  0
  6  7  2  0
  7  8  1  0
  9  8  1  1
  9 10  1  0
 10 11  1  0
 11 12  1  1
 11 13  1  0
 13 14  2  0
 13 15  1  0
 15 16  2  0
 16 17  1  0
 17 18  1  0
 17 19  2  0
 19 20  1  0
 20 21  1  6
 21 22  1  0
 22 23  1  0
 23 24  1  0
 24 25  1  0
 25 26  1  0
 25 27  1  0
 27 28  1  0
 27 29  1  0
 29 30  1  0
 30 31  1  0
 29 32  1  0
 32 33  1  0
 33 34  1  0
 20 35  1  0
 35 36  1  1
 36 37  1  0
 35 38  1  0
 38 39  1  0
 39 40  2  0
 39 41  1  0
 41 42  1  0
 42 43  1  1
 43 44  1  0
 44 45  1  0
 45 46  2  0
 45 47  1  0
 47 48  1  0
 48 49  1  0
 44 50  1  0
 50 51  2  0
 50 52  1  0
 52 53  1  0
 53 54  1  0
 42 55  1  0
 55 56  1  6
 55 57  1  0
 57 58  1  1
 58 59  1  0
 59 60  1  0
 60 61  1  0
 61 62  1  0
 61 63  1  0
 63 64  1  0
 63 65  1  0
 65 66  1  0
 66 67  1  0
 66 68  1  0
 65 69  1  0
 69 70  1  0
 57  9  1  0
 69 59  1  0
 32 23  1  0
M  END
>  <ChEMBL_IDs>  (621) 
CHEMBL216905

>  <target_organism>  (621) 
Plasmodium falciparum

>  <target_molecule_pref_name>  (621) 
nan

>  <# Known Targets>  (621) 
nan

>  <Known Targets>  (621) 
nan

>  <smiles>  (621) 
CCOC(=O)/C=C/C[C@H]1C[C@@H](C)C(=O)/C=C/C(C)=C/[C@H](COC2OC(C)C(O)C(OC)C2OC)[C@@H](CC)OC(=O)C[C@@H](NN(C(=O)OCC)C(=O)OCC)[C@H](C)[C@H]1OC1OC(C)C(O)C(N(C)C)C1O

$$$$

     RDKit          2D

 67 69  0  0  0  0  0  0  0  0999 V2000
   -3.1664  -22.9861    0.0000 C   0  0  0  0  0  0  0  0  0  0  0  0
   -1.9271  -22.1412    0.0000 C   0  0  0  0  0  0  0  0  0  0  0  0
   -2.0392  -20.6453    0.0000 C   0  0  0  0  0  0  0  0  0  0  0  0
   -0.7998  -19.8004    0.0000 C   0  0  0  0  0  0  0  0  0  0  0  0
   -0.9119  -18.3046    0.0000 N   0  0  0  0  0  0  0  0  0  0  0  0
    0.3275  -17.4596    0.0000 C   0  0  0  0  0  0  0  0  0  0  0  0
    1.6789  -18.1104    0.0000 O   0  0  0  0  0  0  0  0  0  0  0  0
    0.2154  -15.9638    0.0000 C   0  0  0  0  0  0  0  0  0  0  0  0
    1.4547  -15.1188    0.0000 C   0  0  0  0  0  0  0  0  0  0  0  0
    1.3426  -13.6230    0.0000 C   0  0  0  0  0  0  0  0  0  0  0  0
    2.5820  -12.7780    0.0000 C   0  0  0  0  0  0  0  0  0  0  0  0
    2.4699  -11.2822    0.0000 C   0  0  0  0  0  0  0  0  0  0  0  0
    3.7093  -10.4372    0.0000 N   0  0  0  0  0  0  0  0  0  0  0  0
    3.5972   -8.9414    0.0000 C   0  0  0  0  0  0  0  0  0  0  0  0
    2.2457   -8.2906    0.0000 O   0  0  0  0  0  0  0  0  0  0  0  0
    4.8365   -8.0964    0.0000 O   0  0  0  0  0  0  0  0  0  0  0  0
    4.7244   -6.6006    0.0000 C   0  0  0  0  0  0  0  0  0  0  0  0
    3.3730   -5.9498    0.0000 C   0  0  0  0  0  0  0  0  0  0  0  0
    2.1336   -6.7948    0.0000 C   0  0  0  0  0  0  0  0  0  0  0  0
    3.2609   -4.4540    0.0000 O   0  0  0  0  0  0  0  0  0  0  0  0
    4.5002   -3.6090    0.0000 C   0  0  0  0  0  0  0  0  0  0  0  0
    4.3881   -2.1132    0.0000 O   0  0  0  0  0  0  0  0  0  0  0  0
    3.0367   -1.4624    0.0000 C   0  0  0  0  0  0  0  0  0  0  0  0
    3.3705    0.0000    0.0000 C   0  0  0  0  0  0  0  0  0  0  0  0
    4.6804   -0.3267    0.0000 C   0  0  0  0  0  0  0  0  0  0  0  0
    3.0367    1.4624    0.0000 C   0  0  0  0  0  0  0  0  0  0  0  0
    4.3881    2.1132    0.0000 O   0  0  0  0  0  0  0  0  0  0  0  0
    5.6275    1.2682    0.0000 C   0  0  0  0  0  0  0  0  0  0  0  0
    5.5154   -0.2276    0.0000 O   0  0  0  0  0  0  0  0  0  0  0  0
    6.7548   -1.0725    0.0000 C   0  0  0  0  0  0  0  0  0  0  0  0
    6.6427   -2.5684    0.0000 C   0  0  0  0  0  0  0  0  0  0  0  0
    8.1062   -0.4217    0.0000 C   0  0  0  0  0  0  0  0  0  0  0  0
    8.2183    1.0741    0.0000 C   0  0  0  0  0  0  0  0  0  0  0  0
    9.5698    1.7249    0.0000 N   0  0  0  0  0  0  0  0  0  0  0  0
   10.8091    0.8799    0.0000 C   0  0  0  0  0  0  0  0  0  0  0  0
    9.6819    3.2207    0.0000 C   0  0  0  0  0  0  0  0  0  0  0  0
    6.9790    1.9191    0.0000 C   0  0  0  0  0  0  0  0  0  0  0  0
    7.0910    3.4149    0.0000 O   0  0  0  0  0  0  0  0  0  0  0  0
    2.1015    2.6351    0.0000 C   0  0  0  0  0  0  0  0  0  0  0  0
    2.2135    4.1309    0.0000 C   0  0  0  0  0  0  0  0  0  0  0  0
    3.5348    3.0773    0.0000 O   0  0  0  0  0  0  0  0  0  0  0  0
    3.8686    4.5397    0.0000 C   0  0  0  0  0  0  0  0  0  0  0  0
    0.7500    3.2860    0.0000 C   0  0  0  0  0  0  0  0  0  0  0  0
   -0.7500    3.2860    0.0000 C   0  0  0  0  0  0  0  0  0  0  0  0
   -1.0838    4.7484    0.0000 C   0  0  0  0  0  0  0  0  0  0  0  0
   -2.1015    2.6351    0.0000 C   0  0  0  0  0  0  0  0  0  0  0  0
   -3.0367    3.8079    0.0000 O   0  0  0  0  0  0  0  0  0  0  0  0
   -3.0367    1.4624    0.0000 C   0  0  0  0  0  0  0  0  0  0  0  0
   -4.3881    2.1132    0.0000 C   0  0  0  0  0  0  0  0  0  0  0  0
   -3.3705    0.0000    0.0000 C   0  0  0  0  0  0  0  0  0  0  0  0
   -4.8705    0.0000    0.0000 O   0  0  0  0  0  0  0  0  0  0  0  0
   -3.0367   -1.4624    0.0000 C   0  0  0  0  0  0  0  0  0  0  0  0
   -3.7867   -2.7614    0.0000 C   0  0  0  0  0  0  0  0  0  0  0  0
   -4.5199   -1.2388    0.0000 O   0  0  0  0  0  0  0  0  0  0  0  0
   -2.1015   -2.6351    0.0000 C   0  0  0  0  0  0  0  0  0  0  0  0
   -3.0367   -3.8079    0.0000 C   0  0  0  0  0  0  0  0  0  0  0  0
   -4.5199   -3.5843    0.0000 C   0  0  0  0  0  0  0  0  0  0  0  0
   -0.7500   -3.2860    0.0000 O   0  0  0  0  0  0  0  0  0  0  0  0
    0.7500   -3.2860    0.0000 C   0  0  0  0  0  0  0  0  0  0  0  0
    1.0838   -4.7484    0.0000 O   0  0  0  0  0  0  0  0  0  0  0  0
    2.1015   -2.6351    0.0000 C   0  0  0  0  0  0  0  0  0  0  0  0
    2.6628   -3.8629    0.0000 C   0  0  0  0  0  0  0  0  0  0  0  0
    5.8517   -4.2598    0.0000 C   0  0  0  0  0  0  0  0  0  0  0  0
    5.9638   -5.7557    0.0000 C   0  0  0  0  0  0  0  0  0  0  0  0
    7.4174   -5.3855    0.0000 C   0  0  0  0  0  0  0  0  0  0  0  0
    6.5807   -7.1229    0.0000 O   0  0  0  0  0  0  0  0  0  0  0  0
    8.0733   -7.2723    0.0000 C   0  0  0  0  0  0  0  0  0  0  0  0
  1  2  1  0
  2  3  1  0
  3  4  1  0
  4  5  1  0
  5  6  1  0
  6  7  2  0
  6  8  1  0
  8  9  1  0
  9 10  1  0
 10 11  1  0
 11 12  1  0
 12 13  1  0
 13 14  1  0
 14 15  2  0
 14 16  1  0
 17 16  1  1
 17 18  1  0
 18 19  1  6
 18 20  1  0
 20 21  1  0
 21 22  1  1
 23 22  1  6
 23 24  1  0
 24 25  1  1
 24 26  1  0
 26 27  1  6
 28 27  1  1
 28 29  1  0
 29 30  1  0
 30 31  1  1
 30 32  1  0
 32 33  1  0
 33 34  1  1
 34 35  1  0
 34 36  1  0
 33 37  1  0
 37 38  1  6
 26 39  1  0
 39 40  1  6
 39 41  1  0
 41 42  1  0
 39 43  1  0
 43 44  1  0
 44 45  1  6
 44 46  1  0
 46 47  2  0
 46 48  1  0
 48 49  1  1
 48 50  1  0
 50 51  1  6
 50 52  1  0
 52 53  1  6
 52 54  1  0
 52 55  1  0
 55 56  1  6
 56 57  1  0
 55 58  1  0
 58 59  1  0
 59 60  2  0
 59 61  1  0
 61 62  1  1
 21 63  1  0
 63 64  1  0
 64 65  1  6
 64 66  1  0
 66 67  1  0
 64 17  1  0
 61 23  1  0
 37 28  1  0
M  END
>  <ChEMBL_IDs>  (622) 
CHEMBL1668181

>  <target_organism>  (622) 
None

>  <target_molecule_pref_name>  (622) 
nan

>  <# Known Targets>  (622) 
nan

>  <Known Targets>  (622) 
nan

>  <smiles>  (622) 
CCCCNC(=O)CCCCCNC(=O)O[C@H]1[C@H](C)O[C@@H](O[C@H]2[C@H](C)[C@@H](O[C@@H]3O[C@H](C)C[C@H](N(C)C)[C@H]3O)[C@](C)(OC)C[C@@H](C)C(=O)[C@H](C)[C@@H](O)[C@](C)(O)[C@@H](CC)OC(=O)[C@@H]2C)C[C@@]1(C)OC

$$$$

     RDKit          2D

 64 66  0  0  0  0  0  0  0  0999 V2000
   19.1205    9.0933    0.0000 C   0  0  0  0  0  0  0  0  0  0  0  0
   18.3705    7.7942    0.0000 C   0  0  0  0  0  0  0  0  0  0  0  0
   16.8705    7.7942    0.0000 C   0  0  0  0  0  0  0  0  0  0  0  0
   16.1205    6.4952    0.0000 C   0  0  0  0  0  0  0  0  0  0  0  0
   14.6205    6.4952    0.0000 C   0  0  0  0  0  0  0  0  0  0  0  0
   13.8705    5.1962    0.0000 C   0  0  0  0  0  0  0  0  0  0  0  0
   12.3705    5.1962    0.0000 C   0  0  0  0  0  0  0  0  0  0  0  0
   11.6205    3.8971    0.0000 C   0  0  0  0  0  0  0  0  0  0  0  0
   10.1205    3.8971    0.0000 C   0  0  0  0  0  0  0  0  0  0  0  0
    9.3705    2.5981    0.0000 C   0  0  0  0  0  0  0  0  0  0  0  0
    7.8705    2.5981    0.0000 C   0  0  0  0  0  0  0  0  0  0  0  0
    7.1205    1.2990    0.0000 C   0  0  0  0  0  0  0  0  0  0  0  0
    5.6205    1.2990    0.0000 O   0  0  0  0  0  0  0  0  0  0  0  0
    4.8705    0.0000    0.0000 N   0  0  0  0  0  0  0  0  0  0  0  0
    3.3705    0.0000    0.0000 C   0  0  0  0  0  0  0  0  0  0  0  0
    3.0367   -1.4624    0.0000 C   0  0  0  0  0  0  0  0  0  0  0  0
    4.3881   -2.1132    0.0000 C   0  0  0  0  0  0  0  0  0  0  0  0
    2.1015   -2.6351    0.0000 C   0  0  0  0  0  0  0  0  0  0  0  0
    3.0367   -3.8079    0.0000 O   0  0  0  0  0  0  0  0  0  0  0  0
    0.7500   -3.2860    0.0000 C   0  0  0  0  0  0  0  0  0  0  0  0
    1.8496   -4.3062    0.0000 C   0  0  0  0  0  0  0  0  0  0  0  0
    0.2020   -4.6823    0.0000 O   0  0  0  0  0  0  0  0  0  0  0  0
   -0.7500   -3.2860    0.0000 C   0  0  0  0  0  0  0  0  0  0  0  0
   -1.0838   -4.7484    0.0000 C   0  0  0  0  0  0  0  0  0  0  0  0
   -2.5171   -5.1905    0.0000 C   0  0  0  0  0  0  0  0  0  0  0  0
   -2.1015   -2.6351    0.0000 O   0  0  0  0  0  0  0  0  0  0  0  0
   -3.0367   -1.4624    0.0000 C   0  0  0  0  0  0  0  0  0  0  0  0
   -4.3881   -2.1132    0.0000 O   0  0  0  0  0  0  0  0  0  0  0  0
   -3.3705    0.0000    0.0000 C   0  0  0  0  0  0  0  0  0  0  0  0
   -4.6804   -0.3267    0.0000 C   0  0  0  0  0  0  0  0  0  0  0  0
   -3.0367    1.4624    0.0000 C   0  0  0  0  0  0  0  0  0  0  0  0
   -4.3881    2.1132    0.0000 O   0  0  0  0  0  0  0  0  0  0  0  0
   -5.6275    1.2682    0.0000 C   0  0  0  0  0  0  0  0  0  0  0  0
   -6.9790    1.9191    0.0000 C   0  0  0  0  0  0  0  0  0  0  0  0
   -8.2183    1.0741    0.0000 C   0  0  0  0  0  0  0  0  0  0  0  0
   -9.6719    0.7039    0.0000 C   0  0  0  0  0  0  0  0  0  0  0  0
   -8.8352    2.4413    0.0000 O   0  0  0  0  0  0  0  0  0  0  0  0
  -10.3278    2.5907    0.0000 C   0  0  0  0  0  0  0  0  0  0  0  0
   -8.1062   -0.4217    0.0000 C   0  0  0  0  0  0  0  0  0  0  0  0
   -9.3456   -1.2667    0.0000 O   0  0  0  0  0  0  0  0  0  0  0  0
   -6.7548   -1.0725    0.0000 C   0  0  0  0  0  0  0  0  0  0  0  0
   -6.6427   -2.5684    0.0000 C   0  0  0  0  0  0  0  0  0  0  0  0
   -5.5154   -0.2276    0.0000 O   0  0  0  0  0  0  0  0  0  0  0  0
   -2.1015    2.6351    0.0000 C   0  0  0  0  0  0  0  0  0  0  0  0
   -3.0367    3.8079    0.0000 C   0  0  0  0  0  0  0  0  0  0  0  0
   -0.7500    3.2860    0.0000 C   0  0  0  0  0  0  0  0  0  0  0  0
   -1.0838    4.7484    0.0000 O   0  0  0  0  0  0  0  0  0  0  0  0
    0.0158    5.7686    0.0000 C   0  0  0  0  0  0  0  0  0  0  0  0
    1.4492    5.3265    0.0000 O   0  0  0  0  0  0  0  0  0  0  0  0
    2.5487    6.3467    0.0000 C   0  0  0  0  0  0  0  0  0  0  0  0
    3.9821    5.9046    0.0000 C   0  0  0  0  0  0  0  0  0  0  0  0
    2.2150    7.8091    0.0000 C   0  0  0  0  0  0  0  0  0  0  0  0
    0.7816    8.2513    0.0000 C   0  0  0  0  0  0  0  0  0  0  0  0
    0.4478    9.7137    0.0000 N   0  0  0  0  0  0  0  0  0  0  0  0
    1.5474   10.7339    0.0000 C   0  0  0  0  0  0  0  0  0  0  0  0
   -0.9855   10.1558    0.0000 C   0  0  0  0  0  0  0  0  0  0  0  0
   -0.3180    7.2310    0.0000 C   0  0  0  0  0  0  0  0  0  0  0  0
   -1.7513    7.6731    0.0000 O   0  0  0  0  0  0  0  0  0  0  0  0
    0.7500    3.2860    0.0000 C   0  0  0  0  0  0  0  0  0  0  0  0
    0.2020    4.6823    0.0000 C   0  0  0  0  0  0  0  0  0  0  0  0
    1.8496    4.3062    0.0000 O   0  0  0  0  0  0  0  0  0  0  0  0
    2.1015    2.6351    0.0000 C   0  0  0  0  0  0  0  0  0  0  0  0
    3.0367    1.4624    0.0000 C   0  0  0  0  0  0  0  0  0  0  0  0
    4.3881    2.1132    0.0000 C   0  0  0  0  0  0  0  0  0  0  0  0
  1  2  1  0
  2  3  1  0
  3  4  1  0
  4  5  1  0
  5  6  1  0
  6  7  1  0
  7  8  1  0
  8  9  1  0
  9 10  1  0
 10 11  1  0
 11 12  1  0
 12 13  1  0
 13 14  1  0
 14 15  2  0
 15 16  1  0
 16 17  1  6
 16 18  1  0
 18 19  1  1
 18 20  1  0
 20 21  1  1
 20 22  1  0
 20 23  1  0
 23 24  1  1
 24 25  1  0
 23 26  1  0
 26 27  1  0
 27 28  2  0
 27 29  1  0
 29 30  1  6
 29 31  1  0
 31 32  1  1
 32 33  1  0
 33 34  1  0
 34 35  1  0
 35 36  1  1
 35 37  1  0
 37 38  1  0
 35 39  1  0
 39 40  1  6
 39 41  1  0
 41 42  1  1
 41 43  1  0
 31 44  1  0
 44 45  1  6
 44 46  1  0
 46 47  1  1
 48 47  1  1
 48 49  1  0
 49 50  1  0
 50 51  1  1
 50 52  1  0
 52 53  1  0
 53 54  1  1
 54 55  1  0
 54 56  1  0
 53 57  1  0
 57 58  1  6
 46 59  1  0
 59 60  1  1
 59 61  1  0
 59 62  1  0
 62 63  1  0
 63 64  1  1
 63 15  1  0
 43 33  1  0
 57 48  1  0
M  END
>  <ChEMBL_IDs>  (623) 
nan

>  <target_organism>  (623) 
nan

>  <target_molecule_pref_name>  (623) 
nan

>  <# Known Targets>  (623) 
nan

>  <Known Targets>  (623) 
nan

>  <smiles>  (623) 
CCCCCCCCCCCCO/N=C1/[C@H](C)[C@@H](O)[C@](C)(O)[C@@H](CC)OC(=O)[C@H](C)[C@@H](OC2C[C@@](C)(OC)[C@@H](O)[C@H](C)O2)[C@H](C)[C@@H](O[C@@H]2O[C@H](C)C[C@H](N(C)C)[C@H]2O)[C@](C)(O)C[C@H]1C

$$$$

     RDKit          2D

 63 65  0  0  0  0  0  0  0  0999 V2000
   18.3705   -7.7942    0.0000 C   0  0  0  0  0  0  0  0  0  0  0  0
   16.8705   -7.7942    0.0000 C   0  0  0  0  0  0  0  0  0  0  0  0
   16.1205   -6.4952    0.0000 C   0  0  0  0  0  0  0  0  0  0  0  0
   14.6205   -6.4952    0.0000 C   0  0  0  0  0  0  0  0  0  0  0  0
   13.8705   -5.1962    0.0000 C   0  0  0  0  0  0  0  0  0  0  0  0
   12.3705   -5.1962    0.0000 C   0  0  0  0  0  0  0  0  0  0  0  0
   11.6205   -3.8971    0.0000 C   0  0  0  0  0  0  0  0  0  0  0  0
   10.1205   -3.8971    0.0000 C   0  0  0  0  0  0  0  0  0  0  0  0
    9.3705   -2.5981    0.0000 C   0  0  0  0  0  0  0  0  0  0  0  0
    7.8705   -2.5981    0.0000 C   0  0  0  0  0  0  0  0  0  0  0  0
    7.1205   -1.2990    0.0000 C   0  0  0  0  0  0  0  0  0  0  0  0
    5.6205   -1.2990    0.0000 C   0  0  0  0  0  0  0  0  0  0  0  0
    4.8705    0.0000    0.0000 N   0  0  0  0  0  0  0  0  0  0  0  0
    3.3705    0.0000    0.0000 C   0  0  0  0  0  0  0  0  0  0  0  0
    3.0367   -1.4624    0.0000 C   0  0  0  0  0  0  0  0  0  0  0  0
    4.3881   -2.1132    0.0000 C   0  0  0  0  0  0  0  0  0  0  0  0
    2.1015   -2.6351    0.0000 C   0  0  0  0  0  0  0  0  0  0  0  0
    3.0367   -3.8079    0.0000 O   0  0  0  0  0  0  0  0  0  0  0  0
    0.7500   -3.2860    0.0000 C   0  0  0  0  0  0  0  0  0  0  0  0
    1.8496   -4.3062    0.0000 C   0  0  0  0  0  0  0  0  0  0  0  0
    0.2020   -4.6823    0.0000 O   0  0  0  0  0  0  0  0  0  0  0  0
   -0.7500   -3.2860    0.0000 C   0  0  0  0  0  0  0  0  0  0  0  0
   -1.0838   -4.7484    0.0000 C   0  0  0  0  0  0  0  0  0  0  0  0
   -2.5171   -5.1905    0.0000 C   0  0  0  0  0  0  0  0  0  0  0  0
   -2.1015   -2.6351    0.0000 O   0  0  0  0  0  0  0  0  0  0  0  0
   -3.0367   -1.4624    0.0000 C   0  0  0  0  0  0  0  0  0  0  0  0
   -4.3881   -2.1132    0.0000 O   0  0  0  0  0  0  0  0  0  0  0  0
   -3.3705    0.0000    0.0000 C   0  0  0  0  0  0  0  0  0  0  0  0
   -4.6804   -0.3267    0.0000 C   0  0  0  0  0  0  0  0  0  0  0  0
   -3.0367    1.4624    0.0000 C   0  0  0  0  0  0  0  0  0  0  0  0
   -4.3881    2.1132    0.0000 O   0  0  0  0  0  0  0  0  0  0  0  0
   -5.6275    1.2682    0.0000 C   0  0  0  0  0  0  0  0  0  0  0  0
   -6.9790    1.9191    0.0000 C   0  0  0  0  0  0  0  0  0  0  0  0
   -8.2183    1.0741    0.0000 C   0  0  0  0  0  0  0  0  0  0  0  0
   -9.6719    0.7039    0.0000 C   0  0  0  0  0  0  0  0  0  0  0  0
   -8.8352    2.4413    0.0000 O   0  0  0  0  0  0  0  0  0  0  0  0
  -10.3278    2.5907    0.0000 C   0  0  0  0  0  0  0  0  0  0  0  0
   -8.1062   -0.4217    0.0000 C   0  0  0  0  0  0  0  0  0  0  0  0
   -9.3456   -1.2667    0.0000 O   0  0  0  0  0  0  0  0  0  0  0  0
   -6.7548   -1.0725    0.0000 C   0  0  0  0  0  0  0  0  0  0  0  0
   -6.6427   -2.5684    0.0000 C   0  0  0  0  0  0  0  0  0  0  0  0
   -5.5154   -0.2276    0.0000 O   0  0  0  0  0  0  0  0  0  0  0  0
   -2.1015    2.6351    0.0000 C   0  0  0  0  0  0  0  0  0  0  0  0
   -3.0367    3.8079    0.0000 C   0  0  0  0  0  0  0  0  0  0  0  0
   -0.7500    3.2860    0.0000 C   0  0  0  0  0  0  0  0  0  0  0  0
   -1.0838    4.7484    0.0000 O   0  0  0  0  0  0  0  0  0  0  0  0
    0.0158    5.7686    0.0000 C   0  0  0  0  0  0  0  0  0  0  0  0
    1.4492    5.3265    0.0000 O   0  0  0  0  0  0  0  0  0  0  0  0
    2.5487    6.3467    0.0000 C   0  0  0  0  0  0  0  0  0  0  0  0
    3.9821    5.9046    0.0000 C   0  0  0  0  0  0  0  0  0  0  0  0
    2.2150    7.8091    0.0000 C   0  0  0  0  0  0  0  0  0  0  0  0
    0.7816    8.2513    0.0000 C   0  0  0  0  0  0  0  0  0  0  0  0
    0.4478    9.7137    0.0000 N   0  0  0  0  0  0  0  0  0  0  0  0
    1.5474   10.7339    0.0000 C   0  0  0  0  0  0  0  0  0  0  0  0
   -0.9855   10.1558    0.0000 C   0  0  0  0  0  0  0  0  0  0  0  0
   -0.3180    7.2310    0.0000 C   0  0  0  0  0  0  0  0  0  0  0  0
   -1.7513    7.6731    0.0000 O   0  0  0  0  0  0  0  0  0  0  0  0
    0.7500    3.2860    0.0000 C   0  0  0  0  0  0  0  0  0  0  0  0
    0.2020    4.6823    0.0000 C   0  0  0  0  0  0  0  0  0  0  0  0
    1.8496    4.3062    0.0000 O   0  0  0  0  0  0  0  0  0  0  0  0
    2.1015    2.6351    0.0000 C   0  0  0  0  0  0  0  0  0  0  0  0
    3.0367    1.4624    0.0000 C   0  0  0  0  0  0  0  0  0  0  0  0
    4.3881    2.1132    0.0000 C   0  0  0  0  0  0  0  0  0  0  0  0
  1  2  1  0
  2  3  1  0
  3  4  1  0
  4  5  1  0
  5  6  1  0
  6  7  1  0
  7  8  1  0
  8  9  1  0
  9 10  1  0
 10 11  1  0
 11 12  1  0
 12 13  1  0
 14 13  1  6
 14 15  1  0
 15 16  1  6
 15 17  1  0
 17 18  1  1
 17 19  1  0
 19 20  1  1
 19 21  1  0
 19 22  1  0
 22 23  1  1
 23 24  1  0
 22 25  1  0
 25 26  1  0
 26 27  2  0
 26 28  1  0
 28 29  1  6
 28 30  1  0
 30 31  1  1
 31 32  1  0
 32 33  1  0
 33 34  1  0
 34 35  1  0
 34 36  1  0
 36 37  1  0
 34 38  1  0
 38 39  1  0
 38 40  1  0
 40 41  1  0
 40 42  1  0
 30 43  1  0
 43 44  1  6
 43 45  1  0
 45 46  1  1
 46 47  1  0
 47 48  1  0
 48 49  1  0
 49 50  1  0
 49 51  1  0
 51 52  1  0
 52 53  1  0
 53 54  1  0
 53 55  1  0
 52 56  1  0
 56 57  1  0
 45 58  1  0
 58 59  1  1
 58 60  1  0
 58 61  1  0
 61 62  1  0
 62 63  1  1
 62 14  1  0
 42 32  1  0
 56 47  1  0
M  END
>  <ChEMBL_IDs>  (624) 
CHEMBL420663

>  <target_organism>  (624) 
Rattus norvegicus

>  <target_molecule_pref_name>  (624) 
nan

>  <# Known Targets>  (624) 
nan

>  <Known Targets>  (624) 
nan

>  <smiles>  (624) 
CCCCCCCCCCCCN[C@@H]1[C@H](C)[C@@H](O)[C@](C)(O)[C@@H](CC)OC(=O)[C@H](C)[C@@H](OC2CC(C)(OC)C(O)C(C)O2)[C@H](C)[C@@H](OC2OC(C)CC(N(C)C)C2O)[C@](C)(O)C[C@H]1C

$$$$

     RDKit          2D

 68 70  0  0  0  0  0  0  0  0999 V2000
   -3.0543  -24.4819    0.0000 C   0  0  0  0  0  0  0  0  0  0  0  0
   -3.1664  -22.9861    0.0000 C   0  0  0  0  0  0  0  0  0  0  0  0
   -1.9271  -22.1412    0.0000 C   0  0  0  0  0  0  0  0  0  0  0  0
   -2.0392  -20.6453    0.0000 C   0  0  0  0  0  0  0  0  0  0  0  0
   -0.7998  -19.8004    0.0000 C   0  0  0  0  0  0  0  0  0  0  0  0
   -0.9119  -18.3046    0.0000 N   0  0  0  0  0  0  0  0  0  0  0  0
    0.3275  -17.4596    0.0000 C   0  0  0  0  0  0  0  0  0  0  0  0
    1.6789  -18.1104    0.0000 O   0  0  0  0  0  0  0  0  0  0  0  0
    0.2154  -15.9638    0.0000 C   0  0  0  0  0  0  0  0  0  0  0  0
    1.4547  -15.1188    0.0000 C   0  0  0  0  0  0  0  0  0  0  0  0
    1.3426  -13.6230    0.0000 C   0  0  0  0  0  0  0  0  0  0  0  0
    2.5820  -12.7780    0.0000 C   0  0  0  0  0  0  0  0  0  0  0  0
    2.4699  -11.2822    0.0000 C   0  0  0  0  0  0  0  0  0  0  0  0
    3.7093  -10.4372    0.0000 N   0  0  0  0  0  0  0  0  0  0  0  0
    3.5972   -8.9414    0.0000 C   0  0  0  0  0  0  0  0  0  0  0  0
    2.2457   -8.2906    0.0000 O   0  0  0  0  0  0  0  0  0  0  0  0
    4.8365   -8.0964    0.0000 O   0  0  0  0  0  0  0  0  0  0  0  0
    4.7244   -6.6006    0.0000 C   0  0  0  0  0  0  0  0  0  0  0  0
    3.3730   -5.9498    0.0000 C   0  0  0  0  0  0  0  0  0  0  0  0
    2.1336   -6.7948    0.0000 C   0  0  0  0  0  0  0  0  0  0  0  0
    3.2609   -4.4540    0.0000 O   0  0  0  0  0  0  0  0  0  0  0  0
    4.5002   -3.6090    0.0000 C   0  0  0  0  0  0  0  0  0  0  0  0
    4.3881   -2.1132    0.0000 O   0  0  0  0  0  0  0  0  0  0  0  0
    3.0367   -1.4624    0.0000 C   0  0  0  0  0  0  0  0  0  0  0  0
    3.3705    0.0000    0.0000 C   0  0  0  0  0  0  0  0  0  0  0  0
    4.6804   -0.3267    0.0000 C   0  0  0  0  0  0  0  0  0  0  0  0
    3.0367    1.4624    0.0000 C   0  0  0  0  0  0  0  0  0  0  0  0
    4.3881    2.1132    0.0000 O   0  0  0  0  0  0  0  0  0  0  0  0
    5.6275    1.2682    0.0000 C   0  0  0  0  0  0  0  0  0  0  0  0
    5.5154   -0.2276    0.0000 O   0  0  0  0  0  0  0  0  0  0  0  0
    6.7548   -1.0725    0.0000 C   0  0  0  0  0  0  0  0  0  0  0  0
    6.6427   -2.5684    0.0000 C   0  0  0  0  0  0  0  0  0  0  0  0
    8.1062   -0.4217    0.0000 C   0  0  0  0  0  0  0  0  0  0  0  0
    8.2183    1.0741    0.0000 C   0  0  0  0  0  0  0  0  0  0  0  0
    9.5698    1.7249    0.0000 N   0  0  0  0  0  0  0  0  0  0  0  0
   10.8091    0.8799    0.0000 C   0  0  0  0  0  0  0  0  0  0  0  0
    9.6819    3.2207    0.0000 C   0  0  0  0  0  0  0  0  0  0  0  0
    6.9790    1.9191    0.0000 C   0  0  0  0  0  0  0  0  0  0  0  0
    7.0910    3.4149    0.0000 O   0  0  0  0  0  0  0  0  0  0  0  0
    2.1015    2.6351    0.0000 C   0  0  0  0  0  0  0  0  0  0  0  0
    2.2135    4.1309    0.0000 C   0  0  0  0  0  0  0  0  0  0  0  0
    3.5348    3.0773    0.0000 O   0  0  0  0  0  0  0  0  0  0  0  0
    3.8686    4.5397    0.0000 C   0  0  0  0  0  0  0  0  0  0  0  0
    0.7500    3.2860    0.0000 C   0  0  0  0  0  0  0  0  0  0  0  0
   -0.7500    3.2860    0.0000 C   0  0  0  0  0  0  0  0  0  0  0  0
   -1.0838    4.7484    0.0000 C   0  0  0  0  0  0  0  0  0  0  0  0
   -2.1015    2.6351    0.0000 C   0  0  0  0  0  0  0  0  0  0  0  0
   -3.0367    3.8079    0.0000 O   0  0  0  0  0  0  0  0  0  0  0  0
   -3.0367    1.4624    0.0000 C   0  0  0  0  0  0  0  0  0  0  0  0
   -4.3881    2.1132    0.0000 C   0  0  0  0  0  0  0  0  0  0  0  0
   -3.3705    0.0000    0.0000 C   0  0  0  0  0  0  0  0  0  0  0  0
   -4.8705    0.0000    0.0000 O   0  0  0  0  0  0  0  0  0  0  0  0
   -3.0367   -1.4624    0.0000 C   0  0  0  0  0  0  0  0  0  0  0  0
   -3.7867   -2.7614    0.0000 C   0  0  0  0  0  0  0  0  0  0  0  0
   -4.5199   -1.2388    0.0000 O   0  0  0  0  0  0  0  0  0  0  0  0
   -2.1015   -2.6351    0.0000 C   0  0  0  0  0  0  0  0  0  0  0  0
   -3.0367   -3.8079    0.0000 C   0  0  0  0  0  0  0  0  0  0  0  0
   -4.5199   -3.5843    0.0000 C   0  0  0  0  0  0  0  0  0  0  0  0
   -0.7500   -3.2860    0.0000 O   0  0  0  0  0  0  0  0  0  0  0  0
    0.7500   -3.2860    0.0000 C   0  0  0  0  0  0  0  0  0  0  0  0
    1.0838   -4.7484    0.0000 O   0  0  0  0  0  0  0  0  0  0  0  0
    2.1015   -2.6351    0.0000 C   0  0  0  0  0  0  0  0  0  0  0  0
    2.6628   -3.8629    0.0000 C   0  0  0  0  0  0  0  0  0  0  0  0
    5.8517   -4.2598    0.0000 C   0  0  0  0  0  0  0  0  0  0  0  0
    5.9638   -5.7557    0.0000 C   0  0  0  0  0  0  0  0  0  0  0  0
    7.4174   -5.3855    0.0000 C   0  0  0  0  0  0  0  0  0  0  0  0
    6.5807   -7.1229    0.0000 O   0  0  0  0  0  0  0  0  0  0  0  0
    8.0733   -7.2723    0.0000 C   0  0  0  0  0  0  0  0  0  0  0  0
  1  2  1  0
  2  3  1  0
  3  4  1  0
  4  5  1  0
  5  6  1  0
  6  7  1  0
  7  8  2  0
  7  9  1  0
  9 10  1  0
 10 11  1  0
 11 12  1  0
 12 13  1  0
 13 14  1  0
 14 15  1  0
 15 16  2  0
 15 17  1  0
 18 17  1  1
 18 19  1  0
 19 20  1  6
 19 21  1  0
 21 22  1  0
 22 23  1  1
 24 23  1  6
 24 25  1  0
 25 26  1  1
 25 27  1  0
 27 28  1  6
 29 28  1  1
 29 30  1  0
 30 31  1  0
 31 32  1  1
 31 33  1  0
 33 34  1  0
 34 35  1  1
 35 36  1  0
 35 37  1  0
 34 38  1  0
 38 39  1  6
 27 40  1  0
 40 41  1  6
 40 42  1  0
 42 43  1  0
 40 44  1  0
 44 45  1  0
 45 46  1  6
 45 47  1  0
 47 48  2  0
 47 49  1  0
 49 50  1  1
 49 51  1  0
 51 52  1  6
 51 53  1  0
 53 54  1  6
 53 55  1  0
 53 56  1  0
 56 57  1  6
 57 58  1  0
 56 59  1  0
 59 60  1  0
 60 61  2  0
 60 62  1  0
 62 63  1  1
 22 64  1  0
 64 65  1  0
 65 66  1  6
 65 67  1  0
 67 68  1  0
 65 18  1  0
 62 24  1  0
 38 29  1  0
M  END
>  <ChEMBL_IDs>  (625) 
CHEMBL1668182

>  <target_organism>  (625) 
None

>  <target_molecule_pref_name>  (625) 
nan

>  <# Known Targets>  (625) 
nan

>  <Known Targets>  (625) 
nan

>  <smiles>  (625) 
CCCCCNC(=O)CCCCCNC(=O)O[C@H]1[C@H](C)O[C@@H](O[C@H]2[C@H](C)[C@@H](O[C@@H]3O[C@H](C)C[C@H](N(C)C)[C@H]3O)[C@](C)(OC)C[C@@H](C)C(=O)[C@H](C)[C@@H](O)[C@](C)(O)[C@@H](CC)OC(=O)[C@@H]2C)C[C@@]1(C)OC

$$$$

     RDKit          2D

 67 69  0  0  0  0  0  0  0  0999 V2000
   19.1205    9.0933    0.0000 C   0  0  0  0  0  0  0  0  0  0  0  0
   18.3705    7.7942    0.0000 C   0  0  0  0  0  0  0  0  0  0  0  0
   16.8705    7.7942    0.0000 C   0  0  0  0  0  0  0  0  0  0  0  0
   16.1205    6.4952    0.0000 C   0  0  0  0  0  0  0  0  0  0  0  0
   14.6205    6.4952    0.0000 C   0  0  0  0  0  0  0  0  0  0  0  0
   13.8705    5.1962    0.0000 C   0  0  0  0  0  0  0  0  0  0  0  0
   12.3705    5.1962    0.0000 C   0  0  0  0  0  0  0  0  0  0  0  0
   11.6205    3.8971    0.0000 C   0  0  0  0  0  0  0  0  0  0  0  0
   10.1205    3.8971    0.0000 C   0  0  0  0  0  0  0  0  0  0  0  0
    9.3705    2.5981    0.0000 C   0  0  0  0  0  0  0  0  0  0  0  0
    7.8705    2.5981    0.0000 C   0  0  0  0  0  0  0  0  0  0  0  0
    7.1205    1.2990    0.0000 C   0  0  0  0  0  0  0  0  0  0  0  0
    5.6205    1.2990    0.0000 O   0  0  0  0  0  0  0  0  0  0  0  0
    4.8705    0.0000    0.0000 N   0  0  0  0  0  0  0  0  0  0  0  0
    3.3705    0.0000    0.0000 C   0  0  0  0  0  0  0  0  0  0  0  0
    3.0367   -1.4624    0.0000 C   0  0  0  0  0  0  0  0  0  0  0  0
    4.3881   -2.1132    0.0000 C   0  0  0  0  0  0  0  0  0  0  0  0
    2.1015   -2.6351    0.0000 C   0  0  0  0  0  0  0  0  0  0  0  0
    3.0367   -3.8079    0.0000 O   0  0  0  0  0  0  0  0  0  0  0  0
    0.7500   -3.2860    0.0000 C   0  0  0  0  0  0  0  0  0  0  0  0
    1.8496   -4.3062    0.0000 C   0  0  0  0  0  0  0  0  0  0  0  0
    0.2020   -4.6823    0.0000 O   0  0  0  0  0  0  0  0  0  0  0  0
   -0.7500   -3.2860    0.0000 C   0  0  0  0  0  0  0  0  0  0  0  0
   -1.0838   -4.7484    0.0000 C   0  0  0  0  0  0  0  0  0  0  0  0
   -2.5171   -5.1905    0.0000 C   0  0  0  0  0  0  0  0  0  0  0  0
   -2.1015   -2.6351    0.0000 O   0  0  0  0  0  0  0  0  0  0  0  0
   -3.0367   -1.4624    0.0000 C   0  0  0  0  0  0  0  0  0  0  0  0
   -4.3881   -2.1132    0.0000 O   0  0  0  0  0  0  0  0  0  0  0  0
   -3.3705    0.0000    0.0000 C   0  0  0  0  0  0  0  0  0  0  0  0
   -4.6804   -0.3267    0.0000 C   0  0  0  0  0  0  0  0  0  0  0  0
   -3.0367    1.4624    0.0000 C   0  0  0  0  0  0  0  0  0  0  0  0
   -4.3881    2.1132    0.0000 O   0  0  0  0  0  0  0  0  0  0  0  0
   -5.6275    1.2682    0.0000 C   0  0  0  0  0  0  0  0  0  0  0  0
   -6.9790    1.9191    0.0000 C   0  0  0  0  0  0  0  0  0  0  0  0
   -8.2183    1.0741    0.0000 C   0  0  0  0  0  0  0  0  0  0  0  0
   -9.6719    0.7039    0.0000 C   0  0  0  0  0  0  0  0  0  0  0  0
   -8.8352    2.4413    0.0000 O   0  0  0  0  0  0  0  0  0  0  0  0
  -10.3278    2.5907    0.0000 C   0  0  0  0  0  0  0  0  0  0  0  0
   -8.1062   -0.4217    0.0000 C   0  0  0  0  0  0  0  0  0  0  0  0
   -9.3456   -1.2667    0.0000 O   0  0  0  0  0  0  0  0  0  0  0  0
   -9.2335   -2.7625    0.0000 C   0  0  0  0  0  0  0  0  0  0  0  0
  -10.4728   -3.6075    0.0000 C   0  0  0  0  0  0  0  0  0  0  0  0
   -7.8820   -3.4133    0.0000 O   0  0  0  0  0  0  0  0  0  0  0  0
   -6.7548   -1.0725    0.0000 C   0  0  0  0  0  0  0  0  0  0  0  0
   -6.6427   -2.5684    0.0000 C   0  0  0  0  0  0  0  0  0  0  0  0
   -5.5154   -0.2276    0.0000 O   0  0  0  0  0  0  0  0  0  0  0  0
   -2.1015    2.6351    0.0000 C   0  0  0  0  0  0  0  0  0  0  0  0
   -3.0367    3.8079    0.0000 C   0  0  0  0  0  0  0  0  0  0  0  0
   -0.7500    3.2860    0.0000 C   0  0  0  0  0  0  0  0  0  0  0  0
   -1.0838    4.7484    0.0000 O   0  0  0  0  0  0  0  0  0  0  0  0
    0.0158    5.7686    0.0000 C   0  0  0  0  0  0  0  0  0  0  0  0
    1.4492    5.3265    0.0000 O   0  0  0  0  0  0  0  0  0  0  0  0
    2.5487    6.3467    0.0000 C   0  0  0  0  0  0  0  0  0  0  0  0
    3.9821    5.9046    0.0000 C   0  0  0  0  0  0  0  0  0  0  0  0
    2.2150    7.8091    0.0000 C   0  0  0  0  0  0  0  0  0  0  0  0
    0.7816    8.2513    0.0000 C   0  0  0  0  0  0  0  0  0  0  0  0
    0.4478    9.7137    0.0000 N   0  0  0  0  0  0  0  0  0  0  0  0
    1.5474   10.7339    0.0000 C   0  0  0  0  0  0  0  0  0  0  0  0
   -0.9855   10.1558    0.0000 C   0  0  0  0  0  0  0  0  0  0  0  0
   -0.3180    7.2310    0.0000 C   0  0  0  0  0  0  0  0  0  0  0  0
   -1.7513    7.6731    0.0000 O   0  0  0  0  0  0  0  0  0  0  0  0
    0.7500    3.2860    0.0000 C   0  0  0  0  0  0  0  0  0  0  0  0
    0.2020    4.6823    0.0000 C   0  0  0  0  0  0  0  0  0  0  0  0
    1.8496    4.3062    0.0000 O   0  0  0  0  0  0  0  0  0  0  0  0
    2.1015    2.6351    0.0000 C   0  0  0  0  0  0  0  0  0  0  0  0
    3.0367    1.4624    0.0000 C   0  0  0  0  0  0  0  0  0  0  0  0
    4.3881    2.1132    0.0000 C   0  0  0  0  0  0  0  0  0  0  0  0
  1  2  1  0
  2  3  1  0
  3  4  1  0
  4  5  1  0
  5  6  1  0
  6  7  1  0
  7  8  1  0
  8  9  1  0
  9 10  1  0
 10 11  1  0
 11 12  1  0
 12 13  1  0
 13 14  1  0
 14 15  2  0
 15 16  1  0
 16 17  1  6
 16 18  1  0
 18 19  1  1
 18 20  1  0
 20 21  1  1
 20 22  1  0
 20 23  1  0
 23 24  1  1
 24 25  1  0
 23 26  1  0
 26 27  1  0
 27 28  2  0
 27 29  1  0
 29 30  1  6
 29 31  1  0
 31 32  1  1
 33 32  1  6
 33 34  1  0
 34 35  1  0
 35 36  1  1
 35 37  1  0
 37 38  1  0
 35 39  1  0
 39 40  1  6
 40 41  1  0
 41 42  1  0
 41 43  2  0
 39 44  1  0
 44 45  1  1
 44 46  1  0
 31 47  1  0
 47 48  1  6
 47 49  1  0
 49 50  1  1
 51 50  1  1
 51 52  1  0
 52 53  1  0
 53 54  1  1
 53 55  1  0
 55 56  1  0
 56 57  1  1
 57 58  1  0
 57 59  1  0
 56 60  1  0
 60 61  1  6
 49 62  1  0
 62 63  1  1
 62 64  1  0
 62 65  1  0
 65 66  1  0
 66 67  1  1
 66 15  1  0
 46 33  1  0
 60 51  1  0
M  END
>  <ChEMBL_IDs>  (626) 
nan

>  <target_organism>  (626) 
nan

>  <target_molecule_pref_name>  (626) 
nan

>  <# Known Targets>  (626) 
nan

>  <Known Targets>  (626) 
nan

>  <smiles>  (626) 
CCCCCCCCCCCCO/N=C1/[C@H](C)[C@@H](O)[C@](C)(O)[C@@H](CC)OC(=O)[C@H](C)[C@@H](O[C@H]2C[C@@](C)(OC)[C@@H](OC(C)=O)[C@H](C)O2)[C@H](C)[C@@H](O[C@@H]2O[C@H](C)C[C@H](N(C)C)[C@H]2O)[C@](C)(O)C[C@H]1C

$$$$

     RDKit          2D

 66 68  0  0  0  0  0  0  0  0999 V2000
   21.3705   10.3923    0.0000 C   0  0  0  0  0  0  0  0  0  0  0  0
   20.6205    9.0933    0.0000 C   0  0  0  0  0  0  0  0  0  0  0  0
   19.1205    9.0933    0.0000 C   0  0  0  0  0  0  0  0  0  0  0  0
   18.3705    7.7942    0.0000 C   0  0  0  0  0  0  0  0  0  0  0  0
   16.8705    7.7942    0.0000 C   0  0  0  0  0  0  0  0  0  0  0  0
   16.1205    6.4952    0.0000 C   0  0  0  0  0  0  0  0  0  0  0  0
   14.6205    6.4952    0.0000 C   0  0  0  0  0  0  0  0  0  0  0  0
   13.8705    5.1962    0.0000 C   0  0  0  0  0  0  0  0  0  0  0  0
   12.3705    5.1962    0.0000 C   0  0  0  0  0  0  0  0  0  0  0  0
   11.6205    3.8971    0.0000 C   0  0  0  0  0  0  0  0  0  0  0  0
   10.1205    3.8971    0.0000 C   0  0  0  0  0  0  0  0  0  0  0  0
    9.3705    2.5981    0.0000 C   0  0  0  0  0  0  0  0  0  0  0  0
    7.8705    2.5981    0.0000 C   0  0  0  0  0  0  0  0  0  0  0  0
    7.1205    1.2990    0.0000 C   0  0  0  0  0  0  0  0  0  0  0  0
    5.6205    1.2990    0.0000 O   0  0  0  0  0  0  0  0  0  0  0  0
    4.8705    0.0000    0.0000 N   0  0  0  0  0  0  0  0  0  0  0  0
    3.3705    0.0000    0.0000 C   0  0  0  0  0  0  0  0  0  0  0  0
    3.0367   -1.4624    0.0000 C   0  0  0  0  0  0  0  0  0  0  0  0
    4.3881   -2.1132    0.0000 C   0  0  0  0  0  0  0  0  0  0  0  0
    2.1015   -2.6351    0.0000 C   0  0  0  0  0  0  0  0  0  0  0  0
    3.0367   -3.8079    0.0000 O   0  0  0  0  0  0  0  0  0  0  0  0
    0.7500   -3.2860    0.0000 C   0  0  0  0  0  0  0  0  0  0  0  0
    1.8496   -4.3062    0.0000 C   0  0  0  0  0  0  0  0  0  0  0  0
    0.2020   -4.6823    0.0000 O   0  0  0  0  0  0  0  0  0  0  0  0
   -0.7500   -3.2860    0.0000 C   0  0  0  0  0  0  0  0  0  0  0  0
   -1.0838   -4.7484    0.0000 C   0  0  0  0  0  0  0  0  0  0  0  0
   -2.5171   -5.1905    0.0000 C   0  0  0  0  0  0  0  0  0  0  0  0
   -2.1015   -2.6351    0.0000 O   0  0  0  0  0  0  0  0  0  0  0  0
   -3.0367   -1.4624    0.0000 C   0  0  0  0  0  0  0  0  0  0  0  0
   -4.3881   -2.1132    0.0000 O   0  0  0  0  0  0  0  0  0  0  0  0
   -3.3705    0.0000    0.0000 C   0  0  0  0  0  0  0  0  0  0  0  0
   -4.6804   -0.3267    0.0000 C   0  0  0  0  0  0  0  0  0  0  0  0
   -3.0367    1.4624    0.0000 C   0  0  0  0  0  0  0  0  0  0  0  0
   -4.3881    2.1132    0.0000 O   0  0  0  0  0  0  0  0  0  0  0  0
   -5.6275    1.2682    0.0000 C   0  0  0  0  0  0  0  0  0  0  0  0
   -6.9790    1.9191    0.0000 C   0  0  0  0  0  0  0  0  0  0  0  0
   -8.2183    1.0741    0.0000 C   0  0  0  0  0  0  0  0  0  0  0  0
   -9.6719    0.7039    0.0000 C   0  0  0  0  0  0  0  0  0  0  0  0
   -8.8352    2.4413    0.0000 O   0  0  0  0  0  0  0  0  0  0  0  0
  -10.3278    2.5907    0.0000 C   0  0  0  0  0  0  0  0  0  0  0  0
   -8.1062   -0.4217    0.0000 C   0  0  0  0  0  0  0  0  0  0  0  0
   -9.3456   -1.2667    0.0000 O   0  0  0  0  0  0  0  0  0  0  0  0
   -6.7548   -1.0725    0.0000 C   0  0  0  0  0  0  0  0  0  0  0  0
   -6.6427   -2.5684    0.0000 C   0  0  0  0  0  0  0  0  0  0  0  0
   -5.5154   -0.2276    0.0000 O   0  0  0  0  0  0  0  0  0  0  0  0
   -2.1015    2.6351    0.0000 C   0  0  0  0  0  0  0  0  0  0  0  0
   -3.0367    3.8079    0.0000 C   0  0  0  0  0  0  0  0  0  0  0  0
   -0.7500    3.2860    0.0000 C   0  0  0  0  0  0  0  0  0  0  0  0
   -1.0838    4.7484    0.0000 O   0  0  0  0  0  0  0  0  0  0  0  0
    0.0158    5.7686    0.0000 C   0  0  0  0  0  0  0  0  0  0  0  0
    1.4492    5.3265    0.0000 O   0  0  0  0  0  0  0  0  0  0  0  0
    2.5487    6.3467    0.0000 C   0  0  0  0  0  0  0  0  0  0  0  0
    3.9821    5.9046    0.0000 C   0  0  0  0  0  0  0  0  0  0  0  0
    2.2150    7.8091    0.0000 C   0  0  0  0  0  0  0  0  0  0  0  0
    0.7816    8.2513    0.0000 C   0  0  0  0  0  0  0  0  0  0  0  0
    0.4478    9.7137    0.0000 N   0  0  0  0  0  0  0  0  0  0  0  0
    1.5474   10.7339    0.0000 C   0  0  0  0  0  0  0  0  0  0  0  0
   -0.9855   10.1558    0.0000 C   0  0  0  0  0  0  0  0  0  0  0  0
   -0.3180    7.2310    0.0000 C   0  0  0  0  0  0  0  0  0  0  0  0
   -1.7513    7.6731    0.0000 O   0  0  0  0  0  0  0  0  0  0  0  0
    0.7500    3.2860    0.0000 C   0  0  0  0  0  0  0  0  0  0  0  0
    0.2020    4.6823    0.0000 C   0  0  0  0  0  0  0  0  0  0  0  0
    1.8496    4.3062    0.0000 O   0  0  0  0  0  0  0  0  0  0  0  0
    2.1015    2.6351    0.0000 C   0  0  0  0  0  0  0  0  0  0  0  0
    3.0367    1.4624    0.0000 C   0  0  0  0  0  0  0  0  0  0  0  0
    4.3881    2.1132    0.0000 C   0  0  0  0  0  0  0  0  0  0  0  0
  1  2  1  0
  2  3  1  0
  3  4  1  0
  4  5  1  0
  5  6  1  0
  6  7  1  0
  7  8  1  0
  8  9  1  0
  9 10  1  0
 10 11  1  0
 11 12  1  0
 12 13  1  0
 13 14  1  0
 14 15  1  0
 15 16  1  0
 16 17  2  0
 17 18  1  0
 18 19  1  6
 18 20  1  0
 20 21  1  1
 20 22  1  0
 22 23  1  1
 22 24  1  0
 22 25  1  0
 25 26  1  1
 26 27  1  0
 25 28  1  0
 28 29  1  0
 29 30  2  0
 29 31  1  0
 31 32  1  6
 31 33  1  0
 33 34  1  1
 34 35  1  0
 35 36  1  0
 36 37  1  0
 37 38  1  1
 37 39  1  0
 39 40  1  0
 37 41  1  0
 41 42  1  6
 41 43  1  0
 43 44  1  1
 43 45  1  0
 33 46  1  0
 46 47  1  6
 46 48  1  0
 48 49  1  1
 50 49  1  1
 50 51  1  0
 51 52  1  0
 52 53  1  1
 52 54  1  0
 54 55  1  0
 55 56  1  1
 56 57  1  0
 56 58  1  0
 55 59  1  0
 59 60  1  6
 48 61  1  0
 61 62  1  1
 61 63  1  0
 61 64  1  0
 64 65  1  0
 65 66  1  1
 65 17  1  0
 45 35  1  0
 59 50  1  0
M  END
>  <ChEMBL_IDs>  (627) 
nan

>  <target_organism>  (627) 
nan

>  <target_molecule_pref_name>  (627) 
nan

>  <# Known Targets>  (627) 
nan

>  <Known Targets>  (627) 
nan

>  <smiles>  (627) 
CCCCCCCCCCCCCCO/N=C1/[C@H](C)[C@@H](O)[C@](C)(O)[C@@H](CC)OC(=O)[C@H](C)[C@@H](OC2C[C@@](C)(OC)[C@@H](O)[C@H](C)O2)[C@H](C)[C@@H](O[C@@H]2O[C@H](C)C[C@H](N(C)C)[C@H]2O)[C@](C)(O)C[C@H]1C

$$$$

     RDKit          2D

 68 70  0  0  0  0  0  0  0  0999 V2000
   23.6205   11.6913    0.0000 C   0  0  0  0  0  0  0  0  0  0  0  0
   22.8705   10.3923    0.0000 C   0  0  0  0  0  0  0  0  0  0  0  0
   21.3705   10.3923    0.0000 C   0  0  0  0  0  0  0  0  0  0  0  0
   20.6205    9.0933    0.0000 C   0  0  0  0  0  0  0  0  0  0  0  0
   19.1205    9.0933    0.0000 C   0  0  0  0  0  0  0  0  0  0  0  0
   18.3705    7.7942    0.0000 C   0  0  0  0  0  0  0  0  0  0  0  0
   16.8705    7.7942    0.0000 C   0  0  0  0  0  0  0  0  0  0  0  0
   16.1205    6.4952    0.0000 C   0  0  0  0  0  0  0  0  0  0  0  0
   14.6205    6.4952    0.0000 C   0  0  0  0  0  0  0  0  0  0  0  0
   13.8705    5.1962    0.0000 C   0  0  0  0  0  0  0  0  0  0  0  0
   12.3705    5.1962    0.0000 C   0  0  0  0  0  0  0  0  0  0  0  0
   11.6205    3.8971    0.0000 C   0  0  0  0  0  0  0  0  0  0  0  0
   10.1205    3.8971    0.0000 C   0  0  0  0  0  0  0  0  0  0  0  0
    9.3705    2.5981    0.0000 C   0  0  0  0  0  0  0  0  0  0  0  0
    7.8705    2.5981    0.0000 C   0  0  0  0  0  0  0  0  0  0  0  0
    7.1205    1.2990    0.0000 C   0  0  0  0  0  0  0  0  0  0  0  0
    5.6205    1.2990    0.0000 O   0  0  0  0  0  0  0  0  0  0  0  0
    4.8705    0.0000    0.0000 N   0  0  0  0  0  0  0  0  0  0  0  0
    3.3705    0.0000    0.0000 C   0  0  0  0  0  0  0  0  0  0  0  0
    3.0367   -1.4624    0.0000 C   0  0  0  0  0  0  0  0  0  0  0  0
    4.3881   -2.1132    0.0000 C   0  0  0  0  0  0  0  0  0  0  0  0
    2.1015   -2.6351    0.0000 C   0  0  0  0  0  0  0  0  0  0  0  0
    3.0367   -3.8079    0.0000 O   0  0  0  0  0  0  0  0  0  0  0  0
    0.7500   -3.2860    0.0000 C   0  0  0  0  0  0  0  0  0  0  0  0
    1.8496   -4.3062    0.0000 C   0  0  0  0  0  0  0  0  0  0  0  0
    0.2020   -4.6823    0.0000 O   0  0  0  0  0  0  0  0  0  0  0  0
   -0.7500   -3.2860    0.0000 C   0  0  0  0  0  0  0  0  0  0  0  0
   -1.0838   -4.7484    0.0000 C   0  0  0  0  0  0  0  0  0  0  0  0
   -2.5171   -5.1905    0.0000 C   0  0  0  0  0  0  0  0  0  0  0  0
   -2.1015   -2.6351    0.0000 O   0  0  0  0  0  0  0  0  0  0  0  0
   -3.0367   -1.4624    0.0000 C   0  0  0  0  0  0  0  0  0  0  0  0
   -4.3881   -2.1132    0.0000 O   0  0  0  0  0  0  0  0  0  0  0  0
   -3.3705    0.0000    0.0000 C   0  0  0  0  0  0  0  0  0  0  0  0
   -4.6804   -0.3267    0.0000 C   0  0  0  0  0  0  0  0  0  0  0  0
   -3.0367    1.4624    0.0000 C   0  0  0  0  0  0  0  0  0  0  0  0
   -4.3881    2.1132    0.0000 O   0  0  0  0  0  0  0  0  0  0  0  0
   -5.6275    1.2682    0.0000 C   0  0  0  0  0  0  0  0  0  0  0  0
   -6.9790    1.9191    0.0000 C   0  0  0  0  0  0  0  0  0  0  0  0
   -8.2183    1.0741    0.0000 C   0  0  0  0  0  0  0  0  0  0  0  0
   -9.6719    0.7039    0.0000 C   0  0  0  0  0  0  0  0  0  0  0  0
   -8.8352    2.4413    0.0000 O   0  0  0  0  0  0  0  0  0  0  0  0
  -10.3278    2.5907    0.0000 C   0  0  0  0  0  0  0  0  0  0  0  0
   -8.1062   -0.4217    0.0000 C   0  0  0  0  0  0  0  0  0  0  0  0
   -9.3456   -1.2667    0.0000 O   0  0  0  0  0  0  0  0  0  0  0  0
   -6.7548   -1.0725    0.0000 C   0  0  0  0  0  0  0  0  0  0  0  0
   -6.6427   -2.5684    0.0000 C   0  0  0  0  0  0  0  0  0  0  0  0
   -5.5154   -0.2276    0.0000 O   0  0  0  0  0  0  0  0  0  0  0  0
   -2.1015    2.6351    0.0000 C   0  0  0  0  0  0  0  0  0  0  0  0
   -3.0367    3.8079    0.0000 C   0  0  0  0  0  0  0  0  0  0  0  0
   -0.7500    3.2860    0.0000 C   0  0  0  0  0  0  0  0  0  0  0  0
   -1.0838    4.7484    0.0000 O   0  0  0  0  0  0  0  0  0  0  0  0
    0.0158    5.7686    0.0000 C   0  0  0  0  0  0  0  0  0  0  0  0
    1.4492    5.3265    0.0000 O   0  0  0  0  0  0  0  0  0  0  0  0
    2.5487    6.3467    0.0000 C   0  0  0  0  0  0  0  0  0  0  0  0
    3.9821    5.9046    0.0000 C   0  0  0  0  0  0  0  0  0  0  0  0
    2.2150    7.8091    0.0000 C   0  0  0  0  0  0  0  0  0  0  0  0
    0.7816    8.2513    0.0000 C   0  0  0  0  0  0  0  0  0  0  0  0
    0.4478    9.7137    0.0000 N   0  0  0  0  0  0  0  0  0  0  0  0
    1.5474   10.7339    0.0000 C   0  0  0  0  0  0  0  0  0  0  0  0
   -0.9855   10.1558    0.0000 C   0  0  0  0  0  0  0  0  0  0  0  0
   -0.3180    7.2310    0.0000 C   0  0  0  0  0  0  0  0  0  0  0  0
   -1.7513    7.6731    0.0000 O   0  0  0  0  0  0  0  0  0  0  0  0
    0.7500    3.2860    0.0000 C   0  0  0  0  0  0  0  0  0  0  0  0
    0.2020    4.6823    0.0000 C   0  0  0  0  0  0  0  0  0  0  0  0
    1.8496    4.3062    0.0000 O   0  0  0  0  0  0  0  0  0  0  0  0
    2.1015    2.6351    0.0000 C   0  0  0  0  0  0  0  0  0  0  0  0
    3.0367    1.4624    0.0000 C   0  0  0  0  0  0  0  0  0  0  0  0
    4.3881    2.1132    0.0000 C   0  0  0  0  0  0  0  0  0  0  0  0
  1  2  1  0
  2  3  1  0
  3  4  1  0
  4  5  1  0
  5  6  1  0
  6  7  1  0
  7  8  1  0
  8  9  1  0
  9 10  1  0
 10 11  1  0
 11 12  1  0
 12 13  1  0
 13 14  1  0
 14 15  1  0
 15 16  1  0
 16 17  1  0
 17 18  1  0
 18 19  2  0
 19 20  1  0
 20 21  1  6
 20 22  1  0
 22 23  1  1
 22 24  1  0
 24 25  1  1
 24 26  1  0
 24 27  1  0
 27 28  1  1
 28 29  1  0
 27 30  1  0
 30 31  1  0
 31 32  2  0
 31 33  1  0
 33 34  1  6
 33 35  1  0
 35 36  1  1
 36 37  1  0
 37 38  1  0
 38 39  1  0
 39 40  1  1
 39 41  1  0
 41 42  1  0
 39 43  1  0
 43 44  1  6
 43 45  1  0
 45 46  1  1
 45 47  1  0
 35 48  1  0
 48 49  1  6
 48 50  1  0
 50 51  1  1
 52 51  1  1
 52 53  1  0
 53 54  1  0
 54 55  1  1
 54 56  1  0
 56 57  1  0
 57 58  1  1
 58 59  1  0
 58 60  1  0
 57 61  1  0
 61 62  1  6
 50 63  1  0
 63 64  1  1
 63 65  1  0
 63 66  1  0
 66 67  1  0
 67 68  1  1
 67 19  1  0
 47 37  1  0
 61 52  1  0
M  END
>  <ChEMBL_IDs>  (628) 
nan

>  <target_organism>  (628) 
nan

>  <target_molecule_pref_name>  (628) 
nan

>  <# Known Targets>  (628) 
nan

>  <Known Targets>  (628) 
nan

>  <smiles>  (628) 
CCCCCCCCCCCCCCCCO/N=C1/[C@H](C)[C@@H](O)[C@](C)(O)[C@@H](CC)OC(=O)[C@H](C)[C@@H](OC2C[C@@](C)(OC)[C@@H](O)[C@H](C)O2)[C@H](C)[C@@H](O[C@@H]2O[C@H](C)C[C@H](N(C)C)[C@H]2O)[C@](C)(O)C[C@H]1C

$$$$

     RDKit          2D

 75 77  0  0  0  0  0  0  0  0999 V2000
    5.6205   -1.2990    0.0000 C   0  0  0  0  0  0  0  0  0  0  0  0
    4.8705    0.0000    0.0000 C   0  0  0  0  0  0  0  0  0  0  0  0
    3.3705    0.0000    0.0000 C   0  0  0  0  0  0  0  0  0  0  0  0
    3.0367   -1.4624    0.0000 O   0  0  0  0  0  0  0  0  0  0  0  0
    2.1015   -2.6351    0.0000 C   0  0  0  0  0  0  0  0  0  0  0  0
    3.0367   -3.8079    0.0000 O   0  0  0  0  0  0  0  0  0  0  0  0
    0.7500   -3.2860    0.0000 C   0  0  0  0  0  0  0  0  0  0  0  0
    1.3600   -4.4903    0.0000 C   0  0  0  0  0  0  0  0  0  0  0  0
   -0.7500   -3.2860    0.0000 C   0  0  0  0  0  0  0  0  0  0  0  0
   -1.0838   -4.7484    0.0000 O   0  0  0  0  0  0  0  0  0  0  0  0
    0.0158   -5.7686    0.0000 C   0  0  0  0  0  0  0  0  0  0  0  0
   -0.3180   -7.2310    0.0000 C   0  0  0  0  0  0  0  0  0  0  0  0
    0.7816   -8.2513    0.0000 C   0  0  0  0  0  0  0  0  0  0  0  0
    1.4659   -9.5861    0.0000 C   0  0  0  0  0  0  0  0  0  0  0  0
   -0.4141   -9.1570    0.0000 O   0  0  0  0  0  0  0  0  0  0  0  0
   -0.2276  -10.6453    0.0000 C   0  0  0  0  0  0  0  0  0  0  0  0
    2.2150   -7.8091    0.0000 C   0  0  0  0  0  0  0  0  0  0  0  0
    3.3145   -8.8294    0.0000 O   0  0  0  0  0  0  0  0  0  0  0  0
    2.5487   -6.3467    0.0000 C   0  0  0  0  0  0  0  0  0  0  0  0
    3.9821   -5.9046    0.0000 C   0  0  0  0  0  0  0  0  0  0  0  0
    1.4492   -5.3265    0.0000 O   0  0  0  0  0  0  0  0  0  0  0  0
   -2.1015   -2.6351    0.0000 C   0  0  0  0  0  0  0  0  0  0  0  0
   -3.0367   -3.8079    0.0000 C   0  0  0  0  0  0  0  0  0  0  0  0
   -3.0367   -1.4624    0.0000 C   0  0  0  0  0  0  0  0  0  0  0  0
   -4.3881   -2.1132    0.0000 O   0  0  0  0  0  0  0  0  0  0  0  0
   -5.6275   -1.2682    0.0000 C   0  0  0  0  0  0  0  0  0  0  0  0
   -5.5154    0.2276    0.0000 O   0  0  0  0  0  0  0  0  0  0  0  0
   -6.7548    1.0725    0.0000 C   0  0  0  0  0  0  0  0  0  0  0  0
   -6.6427    2.5684    0.0000 C   0  0  0  0  0  0  0  0  0  0  0  0
   -8.1062    0.4217    0.0000 C   0  0  0  0  0  0  0  0  0  0  0  0
   -8.2183   -1.0741    0.0000 C   0  0  0  0  0  0  0  0  0  0  0  0
   -9.5698   -1.7249    0.0000 N   0  0  0  0  0  0  0  0  0  0  0  0
  -10.8091   -0.8799    0.0000 C   0  0  0  0  0  0  0  0  0  0  0  0
   -9.7838   -2.7973    0.0000 C   0  0  0  0  0  0  0  0  0  0  0  0
   -6.9790   -1.9191    0.0000 C   0  0  0  0  0  0  0  0  0  0  0  0
   -7.0910   -3.4149    0.0000 O   0  0  0  0  0  0  0  0  0  0  0  0
   -8.4425   -4.0657    0.0000 C   0  0  0  0  0  0  0  0  0  0  0  0
   -9.4143   -3.5644    0.0000 O   0  0  0  0  0  0  0  0  0  0  0  0
   -8.5546   -5.5615    0.0000 C   0  0  0  0  0  0  0  0  0  0  0  0
   -9.9060   -6.2123    0.0000 C   0  0  0  0  0  0  0  0  0  0  0  0
  -10.0181   -7.7081    0.0000 N   0  0  0  0  0  0  0  0  0  0  0  0
  -11.3696   -8.3590    0.0000 C   0  0  0  0  0  0  0  0  0  0  0  0
  -11.4817   -9.8548    0.0000 O   0  0  0  0  0  0  0  0  0  0  0  0
  -12.6090   -7.5140    0.0000 O   0  0  0  0  0  0  0  0  0  0  0  0
  -13.9604   -8.1648    0.0000 C   0  0  0  0  0  0  0  0  0  0  0  0
  -14.6112   -6.8133    0.0000 C   0  0  0  0  0  0  0  0  0  0  0  0
  -13.3096   -9.5163    0.0000 C   0  0  0  0  0  0  0  0  0  0  0  0
  -15.3119   -8.8156    0.0000 C   0  0  0  0  0  0  0  0  0  0  0  0
   -3.3705    0.0000    0.0000 C   0  0  0  0  0  0  0  0  0  0  0  0
   -4.6098   -0.8450    0.0000 C   0  0  0  0  0  0  0  0  0  0  0  0
   -4.6098    0.8450    0.0000 O   0  0  0  0  0  0  0  0  0  0  0  0
   -3.0367    1.4624    0.0000 C   0  0  0  0  0  0  0  0  0  0  0  0
   -2.1015    2.6351    0.0000 C   0  0  0  0  0  0  0  0  0  0  0  0
   -3.0367    3.8079    0.0000 C   0  0  0  0  0  0  0  0  0  0  0  0
   -0.7500    3.2860    0.0000 C   0  0  0  0  0  0  0  0  0  0  0  0
   -1.0838    4.7484    0.0000 O   0  0  0  0  0  0  0  0  0  0  0  0
    0.7500    3.2860    0.0000 C   0  0  0  0  0  0  0  0  0  0  0  0
    1.0838    4.7484    0.0000 C   0  0  0  0  0  0  0  0  0  0  0  0
    2.1015    2.6351    0.0000 C   0  0  0  0  0  0  0  0  0  0  0  0
    3.0367    3.8079    0.0000 O   0  0  0  0  0  0  0  0  0  0  0  0
    4.5199    3.5843    0.0000 C   0  0  0  0  0  0  0  0  0  0  0  0
    5.0679    2.1880    0.0000 O   0  0  0  0  0  0  0  0  0  0  0  0
    5.4552    4.7571    0.0000 C   0  0  0  0  0  0  0  0  0  0  0  0
    6.9384    4.5335    0.0000 C   0  0  0  0  0  0  0  0  0  0  0  0
    7.8736    5.7063    0.0000 N   0  0  0  0  0  0  0  0  0  0  0  0
    9.3569    5.4827    0.0000 C   0  0  0  0  0  0  0  0  0  0  0  0
   10.2921    6.6554    0.0000 O   0  0  0  0  0  0  0  0  0  0  0  0
    9.9049    4.0864    0.0000 O   0  0  0  0  0  0  0  0  0  0  0  0
   11.3882    3.8628    0.0000 C   0  0  0  0  0  0  0  0  0  0  0  0
   11.1646    2.3796    0.0000 C   0  0  0  0  0  0  0  0  0  0  0  0
   11.6117    5.3461    0.0000 C   0  0  0  0  0  0  0  0  0  0  0  0
   12.8714    3.6393    0.0000 C   0  0  0  0  0  0  0  0  0  0  0  0
    3.0367    1.4624    0.0000 C   0  0  0  0  0  0  0  0  0  0  0  0
    3.7867    2.7614    0.0000 C   0  0  0  0  0  0  0  0  0  0  0  0
    4.5199    1.2388    0.0000 O   0  0  0  0  0  0  0  0  0  0  0  0
  1  2  1  0
  2  3  1  0
  3  4  1  0
  4  5  1  0
  5  6  2  0
  5  7  1  0
  7  8  1  0
  7  9  1  0
  9 10  1  0
 10 11  1  0
 11 12  1  0
 12 13  1  0
 13 14  1  0
 13 15  1  0
 15 16  1  0
 13 17  1  0
 17 18  1  0
 17 19  1  0
 19 20  1  0
 19 21  1  0
  9 22  1  0
 22 23  1  0
 22 24  1  0
 24 25  1  0
 25 26  1  0
 26 27  1  0
 27 28  1  0
 28 29  1  0
 28 30  1  0
 30 31  1  0
 31 32  1  0
 32 33  1  0
 32 34  1  0
 31 35  1  0
 35 36  1  0
 36 37  1  0
 37 38  2  0
 37 39  1  0
 39 40  1  0
 40 41  1  0
 41 42  1  0
 42 43  2  0
 42 44  1  0
 44 45  1  0
 45 46  1  0
 45 47  1  0
 45 48  1  0
 24 49  1  0
 49 50  1  0
 49 51  1  0
 49 52  1  0
 52 53  1  0
 53 54  1  0
 53 55  1  0
 55 56  2  0
 55 57  1  0
 57 58  1  0
 57 59  1  0
 59 60  1  0
 60 61  1  0
 61 62  2  0
 61 63  1  0
 63 64  1  0
 64 65  1  0
 65 66  1  0
 66 67  2  0
 66 68  1  0
 68 69  1  0
 69 70  1  0
 69 71  1  0
 69 72  1  0
 59 73  1  0
 73 74  1  0
 73 75  1  0
 73  3  1  0
 21 11  1  0
 35 26  1  0
M  END
>  <ChEMBL_IDs>  (629) 
nan

>  <target_organism>  (629) 
nan

>  <target_molecule_pref_name>  (629) 
nan

>  <# Known Targets>  (629) 
nan

>  <Known Targets>  (629) 
nan

>  <smiles>  (629) 
CCC1OC(=O)C(C)C(OC2CC(C)(OC)C(O)C(C)O2)C(C)C(OC2OC(C)CC(N(C)C)C2OC(=O)CCNC(=O)OC(C)(C)C)C(C)(O)CC(C)C(=O)C(C)C(OC(=O)CCNC(=O)OC(C)(C)C)C1(C)O

$$$$

     RDKit          2D

 69 71  0  0  0  0  0  0  0  0999 V2000
   -8.4538   -4.5798    0.0000 C   0  0  0  0  0  0  0  0  0  0  0  0
   -7.1024   -5.2306    0.0000 C   0  0  0  0  0  0  0  0  0  0  0  0
   -5.8630   -4.3856    0.0000 C   0  0  0  0  0  0  0  0  0  0  0  0
   -4.5116   -5.0365    0.0000 C   0  0  0  0  0  0  0  0  0  0  0  0
   -3.2722   -4.1915    0.0000 C   0  0  0  0  0  0  0  0  0  0  0  0
   -1.9207   -4.8423    0.0000 C   0  0  0  0  0  0  0  0  0  0  0  0
   -0.6814   -3.9973    0.0000 C   0  0  0  0  0  0  0  0  0  0  0  0
    0.6701   -4.6482    0.0000 C   0  0  0  0  0  0  0  0  0  0  0  0
    0.5990   -6.1465    0.0000 O   0  0  0  0  0  0  0  0  0  0  0  0
    1.9094   -3.8032    0.0000 O   0  0  0  0  0  0  0  0  0  0  0  0
    3.2609   -4.4540    0.0000 C   0  0  0  0  0  0  0  0  0  0  0  0
    4.5002   -3.6090    0.0000 C   0  0  0  0  0  0  0  0  0  0  0  0
    4.3881   -2.1132    0.0000 O   0  0  0  0  0  0  0  0  0  0  0  0
    3.0367   -1.4624    0.0000 C   0  0  0  0  0  0  0  0  0  0  0  0
    3.3705    0.0000    0.0000 C   0  0  0  0  0  0  0  0  0  0  0  0
    4.8705    0.0000    0.0000 C   0  0  0  0  0  0  0  0  0  0  0  0
    3.0367    1.4624    0.0000 C   0  0  0  0  0  0  0  0  0  0  0  0
    4.3881    2.1132    0.0000 O   0  0  0  0  0  0  0  0  0  0  0  0
    4.5002    3.6090    0.0000 C   0  0  0  0  0  0  0  0  0  0  0  0
    5.8517    4.2598    0.0000 C   0  0  0  0  0  0  0  0  0  0  0  0
    5.9638    5.7557    0.0000 C   0  0  0  0  0  0  0  0  0  0  0  0
    6.5807    7.1229    0.0000 C   0  0  0  0  0  0  0  0  0  0  0  0
    7.4174    5.3855    0.0000 O   0  0  0  0  0  0  0  0  0  0  0  0
    7.8237    3.9416    0.0000 C   0  0  0  0  0  0  0  0  0  0  0  0
    4.7244    6.6006    0.0000 C   0  0  0  0  0  0  0  0  0  0  0  0
    4.8365    8.0964    0.0000 O   0  0  0  0  0  0  0  0  0  0  0  0
    3.3730    5.9498    0.0000 C   0  0  0  0  0  0  0  0  0  0  0  0
    2.1336    6.7948    0.0000 C   0  0  0  0  0  0  0  0  0  0  0  0
    3.2609    4.4540    0.0000 O   0  0  0  0  0  0  0  0  0  0  0  0
    2.1015    2.6351    0.0000 C   0  0  0  0  0  0  0  0  0  0  0  0
    2.6628    3.8629    0.0000 C   0  0  0  0  0  0  0  0  0  0  0  0
    0.7500    3.2860    0.0000 C   0  0  0  0  0  0  0  0  0  0  0  0
    1.0838    4.7484    0.0000 O   0  0  0  0  0  0  0  0  0  0  0  0
   -0.7500    3.2860    0.0000 O   0  0  0  0  0  0  0  0  0  0  0  0
   -2.1015    2.6351    0.0000 C   0  0  0  0  0  0  0  0  0  0  0  0
   -3.0367    3.8079    0.0000 C   0  0  0  0  0  0  0  0  0  0  0  0
   -2.4887    5.2042    0.0000 C   0  0  0  0  0  0  0  0  0  0  0  0
   -3.0367    1.4624    0.0000 C   0  0  0  0  0  0  0  0  0  0  0  0
   -4.5199    1.2388    0.0000 C   0  0  0  0  0  0  0  0  0  0  0  0
   -3.7867    2.7614    0.0000 O   0  0  0  0  0  0  0  0  0  0  0  0
   -3.3705    0.0000    0.0000 C   0  0  0  0  0  0  0  0  0  0  0  0
   -4.8705    0.0000    0.0000 O   0  0  0  0  0  0  0  0  0  0  0  0
   -5.6205    1.2990    0.0000 C   0  0  0  0  0  0  0  0  0  0  0  0
   -4.8705    2.5981    0.0000 O   0  0  0  0  0  0  0  0  0  0  0  0
   -7.1205    1.2990    0.0000 C   0  0  0  0  0  0  0  0  0  0  0  0
   -7.8705    2.5981    0.0000 C   0  0  0  0  0  0  0  0  0  0  0  0
   -9.3705    2.5981    0.0000 C   0  0  0  0  0  0  0  0  0  0  0  0
  -10.1205    3.8971    0.0000 C   0  0  0  0  0  0  0  0  0  0  0  0
  -11.6205    3.8971    0.0000 C   0  0  0  0  0  0  0  0  0  0  0  0
  -12.3705    5.1962    0.0000 C   0  0  0  0  0  0  0  0  0  0  0  0
  -13.8705    5.1962    0.0000 C   0  0  0  0  0  0  0  0  0  0  0  0
   -3.0367   -1.4624    0.0000 C   0  0  0  0  0  0  0  0  0  0  0  0
   -4.3881   -2.1132    0.0000 C   0  0  0  0  0  0  0  0  0  0  0  0
   -2.1015   -2.6351    0.0000 C   0  0  0  0  0  0  0  0  0  0  0  0
   -3.0663   -3.3735    0.0000 O   0  0  0  0  0  0  0  0  0  0  0  0
   -0.7500   -3.2860    0.0000 C   0  0  0  0  0  0  0  0  0  0  0  0
   -1.0838   -4.7484    0.0000 C   0  0  0  0  0  0  0  0  0  0  0  0
    0.7500   -3.2860    0.0000 C   0  0  0  0  0  0  0  0  0  0  0  0
    2.1015   -2.6351    0.0000 C   0  0  0  0  0  0  0  0  0  0  0  0
    3.5348   -3.0773    0.0000 C   0  0  0  0  0  0  0  0  0  0  0  0
    1.9669   -3.4209    0.0000 O   0  0  0  0  0  0  0  0  0  0  0  0
    5.8517   -4.2598    0.0000 O   0  0  0  0  0  0  0  0  0  0  0  0
    5.9638   -5.7557    0.0000 C   0  0  0  0  0  0  0  0  0  0  0  0
    7.3152   -6.4065    0.0000 C   0  0  0  0  0  0  0  0  0  0  0  0
    4.7244   -6.6006    0.0000 C   0  0  0  0  0  0  0  0  0  0  0  0
    3.3730   -5.9498    0.0000 C   0  0  0  0  0  0  0  0  0  0  0  0
    2.1336   -6.7948    0.0000 N   0  0  0  0  0  0  0  0  0  0  0  0
    2.2457   -8.2906    0.0000 C   0  0  0  0  0  0  0  0  0  0  0  0
    0.7129   -6.3136    0.0000 C   0  0  0  0  0  0  0  0  0  0  0  0
  1  2  1  0
  2  3  1  0
  3  4  1  0
  4  5  1  0
  5  6  1  0
  6  7  1  0
  7  8  1  0
  8  9  2  0
  8 10  1  0
 10 11  1  0
 11 12  1  0
 12 13  1  0
 13 14  1  0
 14 15  1  0
 15 16  1  0
 15 17  1  0
 17 18  1  0
 18 19  1  0
 19 20  1  0
 20 21  1  0
 21 22  1  0
 21 23  1  0
 23 24  1  0
 21 25  1  0
 25 26  1  0
 25 27  1  0
 27 28  1  0
 27 29  1  0
 17 30  1  0
 30 31  1  0
 30 32  1  0
 32 33  2  0
 32 34  1  0
 34 35  1  0
 35 36  1  0
 36 37  1  0
 35 38  1  0
 38 39  1  0
 38 40  1  0
 38 41  1  0
 41 42  1  0
 42 43  1  0
 43 44  2  0
 43 45  1  0
 45 46  1  0
 46 47  1  0
 47 48  1  0
 48 49  1  0
 49 50  1  0
 50 51  1  0
 41 52  1  0
 52 53  1  0
 52 54  1  0
 54 55  2  0
 54 56  1  0
 56 57  1  0
 56 58  1  0
 58 59  1  0
 59 60  1  0
 59 61  1  0
 12 62  1  0
 62 63  1  0
 63 64  1  0
 63 65  1  0
 65 66  1  0
 66 67  1  0
 67 68  1  0
 67 69  1  0
 66 11  1  0
 59 14  1  0
 29 19  1  0
M  END
>  <ChEMBL_IDs>  (630) 
nan

>  <target_organism>  (630) 
nan

>  <target_molecule_pref_name>  (630) 
nan

>  <# Known Targets>  (630) 
nan

>  <Known Targets>  (630) 
nan

>  <smiles>  (630) 
CCCCCCCC(=O)OC1C(OC2C(C)C(OC3CC(C)(OC)C(O)C(C)O3)C(C)C(=O)OC(CC)C(C)(O)C(OC(=O)CCCCCCC)C(C)C(=O)C(C)CC2(C)O)OC(C)CC1N(C)C

$$$$

     RDKit          2D

 69 71  0  0  0  0  0  0  0  0999 V2000
   13.8546   10.6298    0.0000 C   0  0  0  0  0  0  0  0  0  0  0  0
   12.6153    9.7849    0.0000 C   0  0  0  0  0  0  0  0  0  0  0  0
   12.7274    8.2891    0.0000 C   0  0  0  0  0  0  0  0  0  0  0  0
   11.4880    7.4441    0.0000 C   0  0  0  0  0  0  0  0  0  0  0  0
   11.6001    5.9483    0.0000 C   0  0  0  0  0  0  0  0  0  0  0  0
   10.3607    5.1033    0.0000 C   0  0  0  0  0  0  0  0  0  0  0  0
   10.4728    3.6075    0.0000 C   0  0  0  0  0  0  0  0  0  0  0  0
    9.2335    2.7625    0.0000 C   0  0  0  0  0  0  0  0  0  0  0  0
    7.8820    3.4133    0.0000 O   0  0  0  0  0  0  0  0  0  0  0  0
    9.3456    1.2667    0.0000 O   0  0  0  0  0  0  0  0  0  0  0  0
    8.1062    0.4217    0.0000 C   0  0  0  0  0  0  0  0  0  0  0  0
    6.7548    1.0725    0.0000 C   0  0  0  0  0  0  0  0  0  0  0  0
    6.6427    2.5684    0.0000 C   0  0  0  0  0  0  0  0  0  0  0  0
    5.5154    0.2276    0.0000 O   0  0  0  0  0  0  0  0  0  0  0  0
    5.6275   -1.2682    0.0000 C   0  0  0  0  0  0  0  0  0  0  0  0
    4.3881   -2.1132    0.0000 O   0  0  0  0  0  0  0  0  0  0  0  0
    3.0367   -1.4624    0.0000 C   0  0  0  0  0  0  0  0  0  0  0  0
    3.3705    0.0000    0.0000 C   0  0  0  0  0  0  0  0  0  0  0  0
    4.6804    0.3267    0.0000 C   0  0  0  0  0  0  0  0  0  0  0  0
    3.0367    1.4624    0.0000 C   0  0  0  0  0  0  0  0  0  0  0  0
    4.3881    2.1132    0.0000 O   0  0  0  0  0  0  0  0  0  0  0  0
    2.1015    2.6351    0.0000 O   0  0  0  0  0  0  0  0  0  0  0  0
    0.7500    3.2860    0.0000 C   0  0  0  0  0  0  0  0  0  0  0  0
    1.0838    4.7484    0.0000 C   0  0  0  0  0  0  0  0  0  0  0  0
    2.5171    5.1905    0.0000 C   0  0  0  0  0  0  0  0  0  0  0  0
   -0.7500    3.2860    0.0000 C   0  0  0  0  0  0  0  0  0  0  0  0
   -1.8496    4.3062    0.0000 C   0  0  0  0  0  0  0  0  0  0  0  0
   -0.2020    4.6823    0.0000 O   0  0  0  0  0  0  0  0  0  0  0  0
   -2.1015    2.6351    0.0000 C   0  0  0  0  0  0  0  0  0  0  0  0
   -3.0367    3.8079    0.0000 O   0  0  0  0  0  0  0  0  0  0  0  0
   -2.4887    5.2042    0.0000 C   0  0  0  0  0  0  0  0  0  0  0  0
   -1.0054    5.4278    0.0000 O   0  0  0  0  0  0  0  0  0  0  0  0
   -3.4239    6.3769    0.0000 C   0  0  0  0  0  0  0  0  0  0  0  0
   -2.8759    7.7733    0.0000 C   0  0  0  0  0  0  0  0  0  0  0  0
   -3.8111    8.9460    0.0000 C   0  0  0  0  0  0  0  0  0  0  0  0
   -3.2631   10.3423    0.0000 C   0  0  0  0  0  0  0  0  0  0  0  0
   -4.1984   11.5151    0.0000 C   0  0  0  0  0  0  0  0  0  0  0  0
   -3.6503   12.9114    0.0000 C   0  0  0  0  0  0  0  0  0  0  0  0
   -4.5856   14.0841    0.0000 C   0  0  0  0  0  0  0  0  0  0  0  0
   -3.0367    1.4624    0.0000 C   0  0  0  0  0  0  0  0  0  0  0  0
   -4.3881    2.1132    0.0000 C   0  0  0  0  0  0  0  0  0  0  0  0
   -3.3705    0.0000    0.0000 C   0  0  0  0  0  0  0  0  0  0  0  0
   -4.8705    0.0000    0.0000 O   0  0  0  0  0  0  0  0  0  0  0  0
   -3.0367   -1.4624    0.0000 C   0  0  0  0  0  0  0  0  0  0  0  0
   -4.3881   -2.1132    0.0000 C   0  0  0  0  0  0  0  0  0  0  0  0
   -2.1015   -2.6351    0.0000 C   0  0  0  0  0  0  0  0  0  0  0  0
   -0.7500   -3.2860    0.0000 C   0  0  0  0  0  0  0  0  0  0  0  0
   -0.2020   -4.6823    0.0000 C   0  0  0  0  0  0  0  0  0  0  0  0
   -1.8496   -4.3062    0.0000 O   0  0  0  0  0  0  0  0  0  0  0  0
    0.7500   -3.2860    0.0000 C   0  0  0  0  0  0  0  0  0  0  0  0
    1.0838   -4.7484    0.0000 O   0  0  0  0  0  0  0  0  0  0  0  0
   -0.0158   -5.7686    0.0000 C   0  0  0  0  0  0  0  0  0  0  0  0
   -1.4492   -5.3265    0.0000 O   0  0  0  0  0  0  0  0  0  0  0  0
   -2.5487   -6.3467    0.0000 C   0  0  0  0  0  0  0  0  0  0  0  0
   -3.9821   -5.9046    0.0000 C   0  0  0  0  0  0  0  0  0  0  0  0
   -2.2150   -7.8091    0.0000 C   0  0  0  0  0  0  0  0  0  0  0  0
   -0.7816   -8.2513    0.0000 C   0  0  0  0  0  0  0  0  0  0  0  0
   -0.4478   -9.7137    0.0000 N   0  0  0  0  0  0  0  0  0  0  0  0
   -1.5474  -10.7339    0.0000 C   0  0  0  0  0  0  0  0  0  0  0  0
    0.9855  -10.1558    0.0000 C   0  0  0  0  0  0  0  0  0  0  0  0
    0.3180   -7.2310    0.0000 C   0  0  0  0  0  0  0  0  0  0  0  0
    1.7513   -7.6731    0.0000 O   0  0  0  0  0  0  0  0  0  0  0  0
    2.1015   -2.6351    0.0000 C   0  0  0  0  0  0  0  0  0  0  0  0
    3.0367   -3.8079    0.0000 C   0  0  0  0  0  0  0  0  0  0  0  0
    6.9790   -1.9191    0.0000 C   0  0  0  0  0  0  0  0  0  0  0  0
    8.2183   -1.0741    0.0000 C   0  0  0  0  0  0  0  0  0  0  0  0
    8.8352   -2.4413    0.0000 C   0  0  0  0  0  0  0  0  0  0  0  0
    9.6719   -0.7039    0.0000 O   0  0  0  0  0  0  0  0  0  0  0  0
   10.7193   -1.7777    0.0000 C   0  0  0  0  0  0  0  0  0  0  0  0
  1  2  1  0
  2  3  1  0
  3  4  1  0
  4  5  1  0
  5  6  1  0
  6  7  1  0
  7  8  1  0
  8  9  2  0
  8 10  1  0
 10 11  1  0
 11 12  1  0
 12 13  1  0
 12 14  1  0
 14 15  1  0
 15 16  1  0
 16 17  1  0
 17 18  1  0
 18 19  1  0
 18 20  1  0
 20 21  2  0
 20 22  1  0
 22 23  1  0
 23 24  1  0
 24 25  1  0
 23 26  1  0
 26 27  1  0
 26 28  1  0
 26 29  1  0
 29 30  1  0
 30 31  1  0
 31 32  2  0
 31 33  1  0
 33 34  1  0
 34 35  1  0
 35 36  1  0
 36 37  1  0
 37 38  1  0
 38 39  1  0
 29 40  1  0
 40 41  1  0
 40 42  1  0
 42 43  2  0
 42 44  1  0
 44 45  1  0
 44 46  1  0
 46 47  1  0
 47 48  1  0
 47 49  1  0
 47 50  1  0
 50 51  1  0
 51 52  1  0
 52 53  1  0
 53 54  1  0
 54 55  1  0
 54 56  1  0
 56 57  1  0
 57 58  1  0
 58 59  1  0
 58 60  1  0
 57 61  1  0
 61 62  1  0
 50 63  1  0
 63 64  1  0
 15 65  1  0
 65 66  1  0
 66 67  1  0
 66 68  1  0
 68 69  1  0
 66 11  1  0
 63 17  1  0
 61 52  1  0
M  END
>  <ChEMBL_IDs>  (631) 
nan

>  <target_organism>  (631) 
nan

>  <target_molecule_pref_name>  (631) 
nan

>  <# Known Targets>  (631) 
nan

>  <Known Targets>  (631) 
nan

>  <smiles>  (631) 
CCCCCCCC(=O)OC1C(C)OC(OC2C(C)C(=O)OC(CC)C(C)(O)C(OC(=O)CCCCCCC)C(C)C(=O)C(C)CC(C)(O)C(OC3OC(C)CC(N(C)C)C3O)C2C)CC1(C)OC

$$$$

     RDKit          2D

 91 93  0  0  0  0  0  0  0  0999 V2000
    5.6205   -1.2990    0.0000 C   0  0  0  0  0  0  0  0  0  0  0  0
    4.8705    0.0000    0.0000 C   0  0  0  0  0  0  0  0  0  0  0  0
    3.3705    0.0000    0.0000 C   0  0  0  0  0  0  0  0  0  0  0  0
    3.0367   -1.4624    0.0000 O   0  0  0  0  0  0  0  0  0  0  0  0
    2.1015   -2.6351    0.0000 C   0  0  0  0  0  0  0  0  0  0  0  0
    3.0367   -3.8079    0.0000 O   0  0  0  0  0  0  0  0  0  0  0  0
    0.7500   -3.2860    0.0000 C   0  0  0  0  0  0  0  0  0  0  0  0
    1.3600   -4.4903    0.0000 C   0  0  0  0  0  0  0  0  0  0  0  0
   -0.7500   -3.2860    0.0000 C   0  0  0  0  0  0  0  0  0  0  0  0
   -1.0838   -4.7484    0.0000 O   0  0  0  0  0  0  0  0  0  0  0  0
    0.0158   -5.7686    0.0000 C   0  0  0  0  0  0  0  0  0  0  0  0
   -0.3180   -7.2310    0.0000 C   0  0  0  0  0  0  0  0  0  0  0  0
    0.7816   -8.2513    0.0000 C   0  0  0  0  0  0  0  0  0  0  0  0
    1.4659   -9.5861    0.0000 C   0  0  0  0  0  0  0  0  0  0  0  0
   -0.4141   -9.1570    0.0000 O   0  0  0  0  0  0  0  0  0  0  0  0
   -0.2276  -10.6453    0.0000 C   0  0  0  0  0  0  0  0  0  0  0  0
    2.2150   -7.8091    0.0000 C   0  0  0  0  0  0  0  0  0  0  0  0
    3.3145   -8.8294    0.0000 O   0  0  0  0  0  0  0  0  0  0  0  0
    2.5487   -6.3467    0.0000 C   0  0  0  0  0  0  0  0  0  0  0  0
    3.9821   -5.9046    0.0000 C   0  0  0  0  0  0  0  0  0  0  0  0
    1.4492   -5.3265    0.0000 O   0  0  0  0  0  0  0  0  0  0  0  0
   -2.1015   -2.6351    0.0000 C   0  0  0  0  0  0  0  0  0  0  0  0
   -3.0367   -3.8079    0.0000 C   0  0  0  0  0  0  0  0  0  0  0  0
   -3.0367   -1.4624    0.0000 C   0  0  0  0  0  0  0  0  0  0  0  0
   -4.3881   -2.1132    0.0000 O   0  0  0  0  0  0  0  0  0  0  0  0
   -5.6275   -1.2682    0.0000 C   0  0  0  0  0  0  0  0  0  0  0  0
   -5.5154    0.2276    0.0000 O   0  0  0  0  0  0  0  0  0  0  0  0
   -6.7548    1.0725    0.0000 C   0  0  0  0  0  0  0  0  0  0  0  0
   -6.6427    2.5684    0.0000 C   0  0  0  0  0  0  0  0  0  0  0  0
   -8.1062    0.4217    0.0000 C   0  0  0  0  0  0  0  0  0  0  0  0
   -8.2183   -1.0741    0.0000 C   0  0  0  0  0  0  0  0  0  0  0  0
   -9.5698   -1.7249    0.0000 N   0  0  0  0  0  0  0  0  0  0  0  0
  -10.8091   -0.8799    0.0000 C   0  0  0  0  0  0  0  0  0  0  0  0
   -9.7838   -2.7973    0.0000 C   0  0  0  0  0  0  0  0  0  0  0  0
   -6.9790   -1.9191    0.0000 C   0  0  0  0  0  0  0  0  0  0  0  0
   -7.0910   -3.4149    0.0000 O   0  0  0  0  0  0  0  0  0  0  0  0
   -8.4425   -4.0657    0.0000 C   0  0  0  0  0  0  0  0  0  0  0  0
   -9.4143   -3.5644    0.0000 O   0  0  0  0  0  0  0  0  0  0  0  0
   -8.5546   -5.5615    0.0000 C   0  0  0  0  0  0  0  0  0  0  0  0
   -9.9060   -6.2123    0.0000 C   0  0  0  0  0  0  0  0  0  0  0  0
  -10.0181   -7.7081    0.0000 C   0  0  0  0  0  0  0  0  0  0  0  0
   -8.7788   -8.5531    0.0000 O   0  0  0  0  0  0  0  0  0  0  0  0
  -11.3696   -8.3590    0.0000 N   0  0  0  0  0  0  0  0  0  0  0  0
  -11.4817   -9.8548    0.0000 C   0  0  0  0  0  0  0  0  0  0  0  0
  -12.8331  -10.5056    0.0000 C   0  0  0  0  0  0  0  0  0  0  0  0
  -12.9452  -12.0014    0.0000 O   0  0  0  0  0  0  0  0  0  0  0  0
  -14.2967  -12.6522    0.0000 C   0  0  0  0  0  0  0  0  0  0  0  0
  -14.4088  -14.1480    0.0000 C   0  0  0  0  0  0  0  0  0  0  0  0
  -15.7602  -14.7989    0.0000 O   0  0  0  0  0  0  0  0  0  0  0  0
  -15.8723  -16.2947    0.0000 C   0  0  0  0  0  0  0  0  0  0  0  0
  -17.2238  -16.9455    0.0000 C   0  0  0  0  0  0  0  0  0  0  0  0
  -17.3359  -18.4413    0.0000 O   0  0  0  0  0  0  0  0  0  0  0  0
  -18.6873  -19.0921    0.0000 C   0  0  0  0  0  0  0  0  0  0  0  0
  -18.7994  -20.5879    0.0000 C   0  0  0  0  0  0  0  0  0  0  0  0
  -20.1509  -21.2387    0.0000 N   0  0  0  0  0  0  0  0  0  0  0  0
  -20.2630  -22.7346    0.0000 C   0  0  0  0  0  0  0  0  0  0  0  0
  -19.0236  -23.5795    0.0000 O   0  0  0  0  0  0  0  0  0  0  0  0
  -21.6144  -23.3854    0.0000 C   0  0  0  0  0  0  0  0  0  0  0  0
  -21.7265  -24.8812    0.0000 C   0  0  0  0  0  0  0  0  0  0  0  0
  -23.0780  -25.5320    0.0000 C   0  0  0  0  0  0  0  0  0  0  0  0
  -23.1901  -27.0278    0.0000 C   0  0  0  0  0  0  0  0  0  0  0  0
  -24.5415  -27.6786    0.0000 C   0  0  0  0  0  0  0  0  0  0  0  0
  -24.6536  -29.1744    0.0000 C   0  0  0  0  0  0  0  0  0  0  0  0
  -26.0051  -29.8253    0.0000 C   0  0  0  0  0  0  0  0  0  0  0  0
  -26.1172  -31.3211    0.0000 C   0  0  0  0  0  0  0  0  0  0  0  0
  -27.4686  -31.9719    0.0000 C   0  0  0  0  0  0  0  0  0  0  0  0
  -27.5807  -33.4677    0.0000 C   0  0  0  0  0  0  0  0  0  0  0  0
  -28.9322  -34.1185    0.0000 S   0  0  0  0  0  0  0  0  0  0  0  0
  -29.0443  -35.6143    0.0000 C   0  0  0  0  0  0  0  0  0  0  0  0
   -3.3705    0.0000    0.0000 C   0  0  0  0  0  0  0  0  0  0  0  0
   -4.6098   -0.8450    0.0000 C   0  0  0  0  0  0  0  0  0  0  0  0
   -4.6098    0.8450    0.0000 O   0  0  0  0  0  0  0  0  0  0  0  0
   -3.0367    1.4624    0.0000 C   0  0  0  0  0  0  0  0  0  0  0  0
   -2.1015    2.6351    0.0000 C   0  0  0  0  0  0  0  0  0  0  0  0
   -3.0367    3.8079    0.0000 C   0  0  0  0  0  0  0  0  0  0  0  0
   -0.7500    3.2860    0.0000 C   0  0  0  0  0  0  0  0  0  0  0  0
   -1.0838    4.7484    0.0000 N   0  0  0  0  0  0  0  0  0  0  0  0
    0.0158    5.7686    0.0000 O   0  0  0  0  0  0  0  0  0  0  0  0
   -0.3180    7.2310    0.0000 C   0  0  0  0  0  0  0  0  0  0  0  0
    0.7816    8.2513    0.0000 O   0  0  0  0  0  0  0  0  0  0  0  0
    0.4478    9.7137    0.0000 C   0  0  0  0  0  0  0  0  0  0  0  0
    1.5474   10.7339    0.0000 C   0  0  0  0  0  0  0  0  0  0  0  0
    1.2136   12.1963    0.0000 O   0  0  0  0  0  0  0  0  0  0  0  0
    2.3132   13.2166    0.0000 C   0  0  0  0  0  0  0  0  0  0  0  0
    0.7500    3.2860    0.0000 C   0  0  0  0  0  0  0  0  0  0  0  0
    1.0838    4.7484    0.0000 C   0  0  0  0  0  0  0  0  0  0  0  0
    2.1015    2.6351    0.0000 C   0  0  0  0  0  0  0  0  0  0  0  0
    3.0367    3.8079    0.0000 O   0  0  0  0  0  0  0  0  0  0  0  0
    3.0367    1.4624    0.0000 C   0  0  0  0  0  0  0  0  0  0  0  0
    3.7867    2.7614    0.0000 C   0  0  0  0  0  0  0  0  0  0  0  0
    4.5199    1.2388    0.0000 O   0  0  0  0  0  0  0  0  0  0  0  0
  1  2  1  0
  3  2  1  1
  3  4  1  0
  4  5  1  0
  5  6  2  0
  5  7  1  0
  7  8  1  6
  7  9  1  0
  9 10  1  1
 11 10  1  6
 11 12  1  0
 12 13  1  0
 13 14  1  1
 13 15  1  0
 15 16  1  0
 13 17  1  0
 17 18  1  6
 17 19  1  0
 19 20  1  1
 19 21  1  0
  9 22  1  0
 22 23  1  6
 22 24  1  0
 24 25  1  1
 26 25  1  1
 26 27  1  0
 27 28  1  0
 28 29  1  1
 28 30  1  0
 30 31  1  0
 31 32  1  1
 32 33  1  0
 32 34  1  0
 31 35  1  0
 35 36  1  6
 36 37  1  0
 37 38  2  0
 37 39  1  0
 39 40  1  0
 40 41  1  0
 41 42  2  0
 41 43  1  0
 43 44  1  0
 44 45  1  0
 45 46  1  0
 46 47  1  0
 47 48  1  0
 48 49  1  0
 49 50  1  0
 50 51  1  0
 51 52  1  0
 52 53  1  0
 53 54  1  0
 54 55  1  0
 55 56  1  0
 56 57  2  0
 56 58  1  0
 58 59  1  0
 59 60  1  0
 60 61  1  0
 61 62  1  0
 62 63  1  0
 63 64  1  0
 64 65  1  0
 65 66  1  0
 66 67  1  0
 67 68  1  0
 68 69  1  0
 24 70  1  0
 70 71  1  1
 70 72  1  0
 70 73  1  0
 73 74  1  0
 74 75  1  1
 74 76  1  0
 76 77  1  0
 77 78  1  0
 78 79  1  0
 79 80  1  0
 80 81  1  0
 81 82  1  0
 82 83  1  0
 83 84  1  0
 76 85  1  0
 85 86  1  6
 85 87  1  0
 87 88  1  1
 87 89  1  0
 89 90  1  1
 89 91  1  0
 89  3  1  0
 21 11  1  0
 35 26  1  0
M  END
>  <ChEMBL_IDs>  (632) 
CHEMBL3394390

>  <target_organism>  (632) 
Hepatitis C virus,None

>  <target_molecule_pref_name>  (632) 
nan

>  <# Known Targets>  (632) 
nan

>  <Known Targets>  (632) 
nan

>  <smiles>  (632) 
CC[C@H]1OC(=O)[C@H](C)[C@@H](O[C@H]2C[C@@](C)(OC)[C@@H](O)[C@H](C)O2)[C@H](C)[C@@H](O[C@@H]2O[C@H](C)C[C@H](N(C)C)[C@H]2OC(=O)CCC(=O)NCCOCCOCCOCCNC(=O)CCCCCCCCCCSC)[C@](C)(O)C[C@@H](C)C(NOCOCCOC)[C@H](C)[C@@H](O)[C@]1(C)O

$$$$
